                                   MODFLOW 6
                U.S. GEOLOGICAL SURVEY MODULAR HYDROLOGIC MODEL
                          GROUNDWATER FLOW MODEL (GWF)
                            VERSION 6.6.3 09/29/2025

   MODFLOW 6 compiled Sep 29 2025 08:23:57 with Intel(R) Fortran Intel(R) 64
   Compiler Classic for applications running on Intel(R) 64, Version 2021.7.0
                             Build 20220726_000000

This software has been approved for release by the U.S. Geological 
Survey (USGS). Although the software has been subjected to rigorous 
review, the USGS reserves the right to update the software as needed 
pursuant to further analysis and review. No warranty, expressed or 
implied, is made by the USGS or the U.S. Government as to the 
functionality of the software and related material nor shall the 
fact of release constitute any such warranty. Furthermore, the 
software is released on condition that neither the USGS nor the U.S. 
Government shall be held liable for any damages resulting from its 
authorized or unauthorized use. Also refer to the USGS Water 
Resources Software User Rights Notice for complete use, copyright, 
and distribution information.


As a work of the United States Government, this USGS product is 
in the public domain within the United States. You can copy, 
modify, distribute, and perform the work, even for commercial 
purposes, all without asking permission. Additionally, USGS 
waives copyright and related rights in the work worldwide 
through CC0 1.0 Universal Public Domain Dedication 
(https://creativecommons.org/publicdomain/zero/1.0/).

The following GNU Lesser General Public License (LGPL) libraries
are used in this USGS product:

    SPARSKIT version 2.0
      ilut, luson, and qsplit 
      (https://www-users.cse.umn.edu/~saad/software/SPARSKIT/)

    RCM - Reverse Cuthill McKee Ordering
      (https://people.math.sc.edu/Burkardt/f_src/rcm/rcm.html)

    BLAS - Basic Linear Algebra Subprograms Level 1
      (https://people.math.sc.edu/Burkardt/f_src/blas1_d/blas1_d.html)

    SPARSEKIT - Sparse Matrix Utility Package
      amux, dperm, dvperm, rperm, and cperm
      (https://people.sc.fsu.edu/~jburkardt/f77_src/sparsekit/sparsekit.html)

The following BSD-3 License libraries are used in this USGS product:

    Modern Fortran DAG Library
      Copyright (c) 2018, Jacob Williams
      All rights reserved.
      (https://github.com/jacobwilliams/daglib)

MODFLOW 6 compiler options: /Isrc\libmf6_external.a.p /Isrc\libmf6core.a.p
/Isrc /I..\src /MT /nologo /warn:general /warn:truncated_source /stand:f18
/O2 /fpe:0 /heap-arrays:0 /traceback /fpp /Qdiag-disable:7416
/Qdiag-disable:7025 /Qdiag-disable:5268 /Qdiag-disable:10448
/Fdsrc\libmf6core.a.p\Utilities_compilerversion.F90.pdb
/module:src\libmf6core.a.p
/Fosrc/libmf6core.a.p/Utilities_compilerversion.F90.obj /c

System command used to initiate simulation:
D:\tools\bin\mf6.exe

MODFLOW was compiled using uniform precision.

Real Variables
  KIND: 8
  TINY (smallest non-zero value):    2.225074-308
  HUGE (largest value):    1.797693+308
  PRECISION: 15
  SIZE IN BITS: 64

Integer Variables
  KIND: 4
  HUGE (largest value): 2147483647
  SIZE IN BITS: 32

Long Integer Variables
  KIND: 8
  HUGE (largest value): 9223372036854775807
  SIZE IN BITS: 64

Logical Variables
  KIND: 4
  SIZE IN BITS: 32
 
 NAMEFILE OPTIONS:
    FLOWS WILL BE SAVED TO BUDGET FILE SPECIFIED IN OUTPUT CONTROL
 END NAMEFILE OPTIONS:

 DIS -- STRUCTURED GRID DISCRETIZATION PACKAGE, VERSION 2 : 3/27/2014 - INPUT READ FROM MEMPATH: __INPUT__/GWF/DIS                                 


 NPF -- NODE PROPERTY FLOW PACKAGE, VERSION 1, 3/30/2015 INPUT READ FROM MEMPATH: __INPUT__/GWF/NPF                                 


 IC -- Initial Conditions Package, Version 8, 3/28/2015 input read from mempath: __INPUT__/GWF/IC                                  


 Setting Discretization Options
    Model length unit [0=UND, 1=FEET, 2=METERS, 3=CENTIMETERS] set as 2
 End Setting Discretization Options

 Setting Discretization Dimensions
    NLAY = 1
    NROW = 10
    NCOL = 10
 End Setting Discretization Dimensions

 Setting Discretization Griddata
    DELR set from input file
    DELC set from input file
    TOP set from input file
    BOTM set from input file
    IDOMAIN set from input file
 End Setting Discretization Griddata

 Setting NPF Options
    Specific discharge will be calculated at cell centers and written to DATA-SPDIS in budget file when requested.
 End Setting NPF Options

 Setting NPF Griddata
    ICELLTYPE set from input file
    K set from input file
    K33 set from input file
    K22 not provided.  Setting K22 = K.
 End Setting NPF Griddata


 WEL -- WEL PACKAGE, VERSION 8, 2/22/2014 INPUT READ FROM MEMPATH: __INPUT__/GWF/WEL-1                               

 PROCESSING WEL BASE OPTIONS
    LISTS OF WEL CELLS WILL BE PRINTED.
    WEL FLOWS WILL BE PRINTED TO LISTING FILE.
 END OF WEL BASE OPTIONS

 PROCESSING WEL OPTIONS
 END OF WEL OPTIONS

 PROCESSING WEL BASE DIMENSIONS
    MAXBOUND =       1
 END OF WEL BASE DIMENSIONS

 CHD -- CHD PACKAGE, VERSION 8, 2/22/2014 INPUT READ FROM MEMPATH: __INPUT__/GWF/CHD-1                               

 PROCESSING CHD BASE OPTIONS
 END OF CHD BASE OPTIONS

 PROCESSING CHD BASE DIMENSIONS
    MAXBOUND =       2
 END OF CHD BASE DIMENSIONS
    STRT set from input file

 STO -- STORAGE PACKAGE, VERSION 1, 5/19/2014 INPUT READ FROM MEMPATH: __INPUT__/GWF/STO                                 


 PROCESSING STORAGE OPTIONS
 END OF STORAGE OPTIONS
    BINARY GRID INFORMATION WILL BE WRITTEN TO:
      UNIT NUMBER: 1015
      FILE NAME: gwf.dis.grb

 OPENED gwf.dis.grb
 FILE TYPE:DATA(BINARY)   UNIT 1015   STATUS:REPLACE             
 FORMAT:UNFORMATTED            ACCESS:STREAM              
 ACTION:READWRITE           

      THE LAST TIME STEP WILL BE PRINTED
      THE LAST TIME STEP WILL BE PRINTED
 # File generated by Flopy version 3.9.5 on 04/16/2026 at 15:08:54.

 PROCESSING OC OPTIONS

    BUDGET INFORMATION WILL BE WRITTEN TO:
      UNIT NUMBER: 1016
      FILE NAME: gwf.bud

 OPENED gwf.bud
 FILE TYPE:DATA(BINARY)   UNIT 1016   STATUS:REPLACE             
 FORMAT:UNFORMATTED            ACCESS:STREAM              
 ACTION:READWRITE           

    HEAD INFORMATION WILL BE WRITTEN TO:
      UNIT NUMBER: 1017
      FILE NAME: gwf.hds

 OPENED gwf.hds
 FILE TYPE:DATA(BINARY)   UNIT 1017   STATUS:REPLACE             
 FORMAT:UNFORMATTED            ACCESS:STREAM              
 ACTION:READWRITE           

 END OF OC OPTIONS

start timestep kper="1" kstp="1" mode="normal"


 BEGIN READING OUTPUT CONTROL FOR STRESS PERIOD 1
      THE LAST TIME STEP WILL BE SAVED
      THE LAST TIME STEP WILL BE SAVED
      THE LAST TIME STEP WILL BE PRINTED
      THE LAST TIME STEP WILL BE PRINTED

 END READING OUTPUT CONTROL FOR STRESS PERIOD 1
 ---------------------------------------------------
  WEL NO.    LAYER    ROW     COL    CONCENTRATION  
 ---------------------------------------------------
     1         1       3       4     10.0000000     
 ---------------------------------------------------



end timestep


start timestep kper="1" kstp="2" mode="normal"


end timestep


start timestep kper="1" kstp="3" mode="normal"


end timestep


start timestep kper="1" kstp="4" mode="normal"


end timestep


start timestep kper="1" kstp="5" mode="normal"


end timestep


start timestep kper="1" kstp="6" mode="normal"


end timestep


start timestep kper="1" kstp="7" mode="normal"


end timestep


start timestep kper="1" kstp="8" mode="normal"


end timestep


start timestep kper="1" kstp="9" mode="normal"


end timestep


start timestep kper="1" kstp="10" mode="normal"


end timestep


start timestep kper="1" kstp="11" mode="normal"


end timestep


start timestep kper="1" kstp="12" mode="normal"


end timestep


start timestep kper="1" kstp="13" mode="normal"


end timestep


start timestep kper="1" kstp="14" mode="normal"


end timestep


start timestep kper="1" kstp="15" mode="normal"


end timestep


start timestep kper="1" kstp="16" mode="normal"


end timestep


start timestep kper="1" kstp="17" mode="normal"


end timestep


start timestep kper="1" kstp="18" mode="normal"


end timestep


start timestep kper="1" kstp="19" mode="normal"


end timestep


start timestep kper="1" kstp="20" mode="normal"


end timestep


start timestep kper="1" kstp="21" mode="normal"


end timestep


start timestep kper="1" kstp="22" mode="normal"


end timestep


start timestep kper="1" kstp="23" mode="normal"


end timestep


start timestep kper="1" kstp="24" mode="normal"


end timestep


start timestep kper="1" kstp="25" mode="normal"


end timestep


start timestep kper="1" kstp="26" mode="normal"


end timestep


start timestep kper="1" kstp="27" mode="normal"


end timestep


start timestep kper="1" kstp="28" mode="normal"


end timestep


start timestep kper="1" kstp="29" mode="normal"


end timestep


start timestep kper="1" kstp="30" mode="normal"

 UBDSV1 SAVING           STO-SS ON UNIT   1016 AT TIME STEP     30, STRESS PERIOD      1
 UBDSV1 SAVING     FLOW-JA-FACE ON UNIT   1016 AT TIME STEP     30, STRESS PERIOD      1
 UBDSV06 SAVING       DATA-SPDIS IN MODEL GWF              PACKAGE NPF             CONNECTED TO MODEL GWF              PACKAGE NPF              ON UNIT   1016 AT TIME STEP     30, STRESS PERIOD      1
 UBDSV06 SAVING              WEL IN MODEL GWF              PACKAGE GWF             CONNECTED TO MODEL GWF              PACKAGE WEL-1            ON UNIT   1016 AT TIME STEP     30, STRESS PERIOD      1
 UBDSV06 SAVING              CHD IN MODEL GWF              PACKAGE GWF             CONNECTED TO MODEL GWF              PACKAGE CHD-1            ON UNIT   1016 AT TIME STEP     30, STRESS PERIOD      1

 WEL PACKAGE (WEL-1) FLOW RATES   PERIOD      1   STEP       30
 -----------------------------------------------
   NUMBER   CELLID                    RATE      
 -----------------------------------------------
     1      (1,3,4)               10.000000     
 -----------------------------------------------



1
  HEAD IN LAYER   1 AT END OF TIME STEP  30 IN STRESS PERIOD    1
  ---------------------------------------------------------------------------

                1               2               3               4               5               6               7               8               9              10
 ................................................................................................................................................................
   1     0.185497        0.188116        0.191042        0.187596        0.165693        0.139217        0.116322        9.998521E-02    9.000401E-02    8.535858E-02
   2     0.182877        0.187810        0.197412        0.206054        0.170266        0.135635        0.109764        9.362972E-02    8.466823E-02    8.071316E-02
   3     0.175325        0.182836        0.204742        0.268943        0.173682        0.123295        9.346784E-02    8.010171E-02    7.432606E-02    7.211266E-02
   4     0.160263        0.163465        0.169776        0.173834        0.132224        9.039373E-02    6.071120E-02    5.898324E-02    6.042162E-02    6.129875E-02
   5     0.141997        0.140987        0.137062        0.124393        9.098630E-02    4.534501E-02     0.00000        3.469843E-02    4.707843E-02    5.136199E-02
   6     0.124742        0.121425        0.113092        9.568911E-02    6.198337E-02     0.00000        1.659524E-02    3.273206E-02    4.183167E-02    4.570878E-02
   7     0.110804        0.106878        9.819276E-02    8.328796E-02    6.125808E-02    3.618680E-02    3.364890E-02    3.780291E-02    4.180739E-02    4.393269E-02
   8     0.100791        9.709206E-02    8.951244E-02    7.801190E-02    6.357417E-02    4.984024E-02    4.401063E-02    4.302328E-02    4.366231E-02    4.428190E-02
   9     9.447614E-02    9.118678E-02    8.475303E-02    7.567303E-02    6.518646E-02    5.558936E-02    4.953012E-02    4.661726E-02    4.553667E-02    4.525071E-02
  10     9.145102E-02    8.842590E-02    8.263989E-02    7.474073E-02    6.590927E-02    5.780062E-02    5.190323E-02    4.837896E-02    4.661639E-02    4.593355E-02

 HEAD WILL BE SAVED ON UNIT 1017 AT END OF TIME STEP   30, STRESS PERIOD    1


  VOLUME BUDGET FOR ENTIRE MODEL AT END OF TIME STEP   30, STRESS PERIOD   1
  ---------------------------------------------------------------------------------------------------

     CUMULATIVE VOLUME      L**3       RATES FOR THIS TIME STEP      L**3/T          PACKAGE NAME    
     ------------------                 ------------------------                     ----------------

           IN:                                      IN:
           ---                                      ---
              STO-SS =           0.0000                STO-SS =           0.0000     STORAGE                          
                 WEL =         300.0000                   WEL =          10.0000     WEL-1                            
                 CHD =           0.0000                   CHD =           0.0000     CHD-1                            

            TOTAL IN =         300.0000              TOTAL IN =          10.0000

          OUT:                                     OUT:
          ----                                     ----
              STO-SS =           0.0000                STO-SS =           0.0000     STORAGE                          
                 WEL =           0.0000                   WEL =           0.0000     WEL-1                            
                 CHD =         300.0000                   CHD =          10.0000     CHD-1                            

           TOTAL OUT =         300.0000             TOTAL OUT =          10.0000

            IN - OUT =       1.0201E-07              IN - OUT =       1.3207E-09

 PERCENT DISCREPANCY =           0.00     PERCENT DISCREPANCY =           0.00




         TIME SUMMARY AT END OF TIME STEP   30 IN STRESS PERIOD    1
                    SECONDS     MINUTES      HOURS       DAYS        YEARS
                    -----------------------------------------------------------
   TIME STEP LENGTH  86400.      1440.0      24.000      1.0000     2.73785E-03
 STRESS PERIOD TIME 2.59200E+06  43200.      720.00      30.000     8.21355E-02
         TOTAL TIME 2.59200E+06  43200.      720.00      30.000     8.21355E-02


end timestep


start timestep kper="2" kstp="1" mode="normal"


 END OF FILE DETECTED IN OUTPUT CONTROL.
 CURRENT OUTPUT CONTROL SETTINGS WILL BE 
 REPEATED UNTIL THE END OF THE SIMULATION.

 OUTPUT CONTROL FOR STRESS PERIOD 2 IS REPEATED USING SETTINGS FROM A PREVIOUS STRESS PERIOD.

end timestep


start timestep kper="2" kstp="2" mode="normal"


end timestep


start timestep kper="2" kstp="3" mode="normal"


end timestep


start timestep kper="2" kstp="4" mode="normal"


end timestep


start timestep kper="2" kstp="5" mode="normal"


end timestep


start timestep kper="2" kstp="6" mode="normal"


end timestep


start timestep kper="2" kstp="7" mode="normal"


end timestep


start timestep kper="2" kstp="8" mode="normal"


end timestep


start timestep kper="2" kstp="9" mode="normal"


end timestep


start timestep kper="2" kstp="10" mode="normal"


end timestep


start timestep kper="2" kstp="11" mode="normal"


end timestep


start timestep kper="2" kstp="12" mode="normal"


end timestep


start timestep kper="2" kstp="13" mode="normal"


end timestep


start timestep kper="2" kstp="14" mode="normal"


end timestep


start timestep kper="2" kstp="15" mode="normal"


end timestep


start timestep kper="2" kstp="16" mode="normal"


end timestep


start timestep kper="2" kstp="17" mode="normal"


end timestep


start timestep kper="2" kstp="18" mode="normal"


end timestep


start timestep kper="2" kstp="19" mode="normal"


end timestep


start timestep kper="2" kstp="20" mode="normal"


end timestep


start timestep kper="2" kstp="21" mode="normal"


end timestep


start timestep kper="2" kstp="22" mode="normal"


end timestep


start timestep kper="2" kstp="23" mode="normal"


end timestep


start timestep kper="2" kstp="24" mode="normal"


end timestep


start timestep kper="2" kstp="25" mode="normal"


end timestep


start timestep kper="2" kstp="26" mode="normal"


end timestep


start timestep kper="2" kstp="27" mode="normal"


end timestep


start timestep kper="2" kstp="28" mode="normal"


end timestep


start timestep kper="2" kstp="29" mode="normal"


end timestep


start timestep kper="2" kstp="30" mode="normal"

 UBDSV1 SAVING           STO-SS ON UNIT   1016 AT TIME STEP     30, STRESS PERIOD      2
 UBDSV1 SAVING     FLOW-JA-FACE ON UNIT   1016 AT TIME STEP     30, STRESS PERIOD      2
 UBDSV06 SAVING       DATA-SPDIS IN MODEL GWF              PACKAGE NPF             CONNECTED TO MODEL GWF              PACKAGE NPF              ON UNIT   1016 AT TIME STEP     30, STRESS PERIOD      2
 UBDSV06 SAVING              WEL IN MODEL GWF              PACKAGE GWF             CONNECTED TO MODEL GWF              PACKAGE WEL-1            ON UNIT   1016 AT TIME STEP     30, STRESS PERIOD      2
 UBDSV06 SAVING              CHD IN MODEL GWF              PACKAGE GWF             CONNECTED TO MODEL GWF              PACKAGE CHD-1            ON UNIT   1016 AT TIME STEP     30, STRESS PERIOD      2

 WEL PACKAGE (WEL-1) FLOW RATES   PERIOD      2   STEP       30
 -----------------------------------------------
   NUMBER   CELLID                    RATE      
 -----------------------------------------------
     1      (1,3,4)               10.000000     
 -----------------------------------------------



1
  HEAD IN LAYER   1 AT END OF TIME STEP  30 IN STRESS PERIOD    2
  ---------------------------------------------------------------------------

                1               2               3               4               5               6               7               8               9              10
 ................................................................................................................................................................
   1     0.185497        0.188116        0.191042        0.187596        0.165693        0.139217        0.116322        9.998521E-02    9.000401E-02    8.535858E-02
   2     0.182877        0.187810        0.197412        0.206054        0.170266        0.135635        0.109764        9.362972E-02    8.466823E-02    8.071316E-02
   3     0.175325        0.182836        0.204742        0.268943        0.173682        0.123295        9.346784E-02    8.010171E-02    7.432606E-02    7.211266E-02
   4     0.160263        0.163465        0.169776        0.173834        0.132224        9.039373E-02    6.071120E-02    5.898324E-02    6.042162E-02    6.129875E-02
   5     0.141997        0.140987        0.137062        0.124393        9.098630E-02    4.534501E-02     0.00000        3.469843E-02    4.707843E-02    5.136199E-02
   6     0.124742        0.121425        0.113092        9.568911E-02    6.198337E-02     0.00000        1.659524E-02    3.273206E-02    4.183167E-02    4.570878E-02
   7     0.110804        0.106878        9.819276E-02    8.328796E-02    6.125808E-02    3.618680E-02    3.364890E-02    3.780291E-02    4.180739E-02    4.393269E-02
   8     0.100791        9.709206E-02    8.951244E-02    7.801190E-02    6.357417E-02    4.984024E-02    4.401063E-02    4.302328E-02    4.366231E-02    4.428190E-02
   9     9.447614E-02    9.118678E-02    8.475303E-02    7.567303E-02    6.518646E-02    5.558936E-02    4.953012E-02    4.661726E-02    4.553667E-02    4.525071E-02
  10     9.145102E-02    8.842590E-02    8.263989E-02    7.474073E-02    6.590927E-02    5.780062E-02    5.190323E-02    4.837896E-02    4.661639E-02    4.593355E-02

 HEAD WILL BE SAVED ON UNIT 1017 AT END OF TIME STEP   30, STRESS PERIOD    2


  VOLUME BUDGET FOR ENTIRE MODEL AT END OF TIME STEP   30, STRESS PERIOD   2
  ---------------------------------------------------------------------------------------------------

     CUMULATIVE VOLUME      L**3       RATES FOR THIS TIME STEP      L**3/T          PACKAGE NAME    
     ------------------                 ------------------------                     ----------------

           IN:                                      IN:
           ---                                      ---
              STO-SS =           0.0000                STO-SS =           0.0000     STORAGE                          
                 WEL =         600.0000                   WEL =          10.0000     WEL-1                            
                 CHD =           0.0000                   CHD =           0.0000     CHD-1                            

            TOTAL IN =         600.0000              TOTAL IN =          10.0000

          OUT:                                     OUT:
          ----                                     ----
              STO-SS =           0.0000                STO-SS =           0.0000     STORAGE                          
                 WEL =           0.0000                   WEL =           0.0000     WEL-1                            
                 CHD =         600.0000                   CHD =          10.0000     CHD-1                            

           TOTAL OUT =         600.0000             TOTAL OUT =          10.0000

            IN - OUT =       1.3485E-07              IN - OUT =       9.4585E-10

 PERCENT DISCREPANCY =           0.00     PERCENT DISCREPANCY =           0.00




         TIME SUMMARY AT END OF TIME STEP   30 IN STRESS PERIOD    2
                    SECONDS     MINUTES      HOURS       DAYS        YEARS
                    -----------------------------------------------------------
   TIME STEP LENGTH  86400.      1440.0      24.000      1.0000     2.73785E-03
 STRESS PERIOD TIME 2.59200E+06  43200.      720.00      30.000     8.21355E-02
         TOTAL TIME 5.18400E+06  86400.      1440.0      60.000     0.16427    


end timestep


start timestep kper="3" kstp="1" mode="normal"


 OUTPUT CONTROL FOR STRESS PERIOD 3 IS REPEATED USING SETTINGS FROM A PREVIOUS STRESS PERIOD.

end timestep


start timestep kper="3" kstp="2" mode="normal"


end timestep


start timestep kper="3" kstp="3" mode="normal"


end timestep


start timestep kper="3" kstp="4" mode="normal"


end timestep


start timestep kper="3" kstp="5" mode="normal"


end timestep


start timestep kper="3" kstp="6" mode="normal"


end timestep


start timestep kper="3" kstp="7" mode="normal"


end timestep


start timestep kper="3" kstp="8" mode="normal"


end timestep


start timestep kper="3" kstp="9" mode="normal"


end timestep


start timestep kper="3" kstp="10" mode="normal"


end timestep


start timestep kper="3" kstp="11" mode="normal"


end timestep


start timestep kper="3" kstp="12" mode="normal"


end timestep


start timestep kper="3" kstp="13" mode="normal"


end timestep


start timestep kper="3" kstp="14" mode="normal"


end timestep


start timestep kper="3" kstp="15" mode="normal"


end timestep


start timestep kper="3" kstp="16" mode="normal"


end timestep


start timestep kper="3" kstp="17" mode="normal"


end timestep


start timestep kper="3" kstp="18" mode="normal"


end timestep


start timestep kper="3" kstp="19" mode="normal"


end timestep


start timestep kper="3" kstp="20" mode="normal"


end timestep


start timestep kper="3" kstp="21" mode="normal"


end timestep


start timestep kper="3" kstp="22" mode="normal"


end timestep


start timestep kper="3" kstp="23" mode="normal"


end timestep


start timestep kper="3" kstp="24" mode="normal"


end timestep


start timestep kper="3" kstp="25" mode="normal"


end timestep


start timestep kper="3" kstp="26" mode="normal"


end timestep


start timestep kper="3" kstp="27" mode="normal"


end timestep


start timestep kper="3" kstp="28" mode="normal"


end timestep


start timestep kper="3" kstp="29" mode="normal"


end timestep


start timestep kper="3" kstp="30" mode="normal"

 UBDSV1 SAVING           STO-SS ON UNIT   1016 AT TIME STEP     30, STRESS PERIOD      3
 UBDSV1 SAVING     FLOW-JA-FACE ON UNIT   1016 AT TIME STEP     30, STRESS PERIOD      3
 UBDSV06 SAVING       DATA-SPDIS IN MODEL GWF              PACKAGE NPF             CONNECTED TO MODEL GWF              PACKAGE NPF              ON UNIT   1016 AT TIME STEP     30, STRESS PERIOD      3
 UBDSV06 SAVING              WEL IN MODEL GWF              PACKAGE GWF             CONNECTED TO MODEL GWF              PACKAGE WEL-1            ON UNIT   1016 AT TIME STEP     30, STRESS PERIOD      3
 UBDSV06 SAVING              CHD IN MODEL GWF              PACKAGE GWF             CONNECTED TO MODEL GWF              PACKAGE CHD-1            ON UNIT   1016 AT TIME STEP     30, STRESS PERIOD      3

 WEL PACKAGE (WEL-1) FLOW RATES   PERIOD      3   STEP       30
 -----------------------------------------------
   NUMBER   CELLID                    RATE      
 -----------------------------------------------
     1      (1,3,4)               10.000000     
 -----------------------------------------------



1
  HEAD IN LAYER   1 AT END OF TIME STEP  30 IN STRESS PERIOD    3
  ---------------------------------------------------------------------------

                1               2               3               4               5               6               7               8               9              10
 ................................................................................................................................................................
   1     0.185497        0.188116        0.191042        0.187596        0.165693        0.139217        0.116322        9.998521E-02    9.000401E-02    8.535858E-02
   2     0.182877        0.187810        0.197412        0.206054        0.170266        0.135635        0.109764        9.362972E-02    8.466823E-02    8.071316E-02
   3     0.175325        0.182836        0.204742        0.268943        0.173682        0.123295        9.346784E-02    8.010171E-02    7.432606E-02    7.211266E-02
   4     0.160263        0.163465        0.169776        0.173834        0.132224        9.039373E-02    6.071120E-02    5.898324E-02    6.042162E-02    6.129875E-02
   5     0.141997        0.140987        0.137062        0.124393        9.098630E-02    4.534501E-02     0.00000        3.469843E-02    4.707843E-02    5.136199E-02
   6     0.124742        0.121425        0.113092        9.568911E-02    6.198337E-02     0.00000        1.659524E-02    3.273206E-02    4.183167E-02    4.570878E-02
   7     0.110804        0.106878        9.819276E-02    8.328796E-02    6.125808E-02    3.618680E-02    3.364890E-02    3.780291E-02    4.180739E-02    4.393269E-02
   8     0.100791        9.709206E-02    8.951244E-02    7.801190E-02    6.357417E-02    4.984024E-02    4.401063E-02    4.302328E-02    4.366231E-02    4.428190E-02
   9     9.447614E-02    9.118678E-02    8.475303E-02    7.567303E-02    6.518646E-02    5.558936E-02    4.953012E-02    4.661726E-02    4.553667E-02    4.525071E-02
  10     9.145102E-02    8.842590E-02    8.263989E-02    7.474073E-02    6.590927E-02    5.780062E-02    5.190323E-02    4.837896E-02    4.661639E-02    4.593355E-02

 HEAD WILL BE SAVED ON UNIT 1017 AT END OF TIME STEP   30, STRESS PERIOD    3


  VOLUME BUDGET FOR ENTIRE MODEL AT END OF TIME STEP   30, STRESS PERIOD   3
  ---------------------------------------------------------------------------------------------------

     CUMULATIVE VOLUME      L**3       RATES FOR THIS TIME STEP      L**3/T          PACKAGE NAME    
     ------------------                 ------------------------                     ----------------

           IN:                                      IN:
           ---                                      ---
              STO-SS =           0.0000                STO-SS =           0.0000     STORAGE                          
                 WEL =         900.0000                   WEL =          10.0000     WEL-1                            
                 CHD =           0.0000                   CHD =           0.0000     CHD-1                            

            TOTAL IN =         900.0000              TOTAL IN =          10.0000

          OUT:                                     OUT:
          ----                                     ----
              STO-SS =           0.0000                STO-SS =           0.0000     STORAGE                          
                 WEL =           0.0000                   WEL =           0.0000     WEL-1                            
                 CHD =         900.0000                   CHD =          10.0000     CHD-1                            

           TOTAL OUT =         900.0000             TOTAL OUT =          10.0000

            IN - OUT =       1.6041E-07              IN - OUT =       7.8005E-10

 PERCENT DISCREPANCY =           0.00     PERCENT DISCREPANCY =           0.00




         TIME SUMMARY AT END OF TIME STEP   30 IN STRESS PERIOD    3
                    SECONDS     MINUTES      HOURS       DAYS        YEARS
                    -----------------------------------------------------------
   TIME STEP LENGTH  86400.      1440.0      24.000      1.0000     2.73785E-03
 STRESS PERIOD TIME 2.59200E+06  43200.      720.00      30.000     8.21355E-02
         TOTAL TIME 7.77600E+06 1.29600E+05  2160.0      90.000     0.24641    


end timestep


start timestep kper="4" kstp="1" mode="normal"


 OUTPUT CONTROL FOR STRESS PERIOD 4 IS REPEATED USING SETTINGS FROM A PREVIOUS STRESS PERIOD.

end timestep


start timestep kper="4" kstp="2" mode="normal"


end timestep


start timestep kper="4" kstp="3" mode="normal"


end timestep


start timestep kper="4" kstp="4" mode="normal"


end timestep


start timestep kper="4" kstp="5" mode="normal"


end timestep


start timestep kper="4" kstp="6" mode="normal"


end timestep


start timestep kper="4" kstp="7" mode="normal"


end timestep


start timestep kper="4" kstp="8" mode="normal"


end timestep


start timestep kper="4" kstp="9" mode="normal"


end timestep


start timestep kper="4" kstp="10" mode="normal"


end timestep


start timestep kper="4" kstp="11" mode="normal"


end timestep


start timestep kper="4" kstp="12" mode="normal"


end timestep


start timestep kper="4" kstp="13" mode="normal"


end timestep


start timestep kper="4" kstp="14" mode="normal"


end timestep


start timestep kper="4" kstp="15" mode="normal"


end timestep


start timestep kper="4" kstp="16" mode="normal"


end timestep


start timestep kper="4" kstp="17" mode="normal"


end timestep


start timestep kper="4" kstp="18" mode="normal"


end timestep


start timestep kper="4" kstp="19" mode="normal"


end timestep


start timestep kper="4" kstp="20" mode="normal"


end timestep


start timestep kper="4" kstp="21" mode="normal"


end timestep


start timestep kper="4" kstp="22" mode="normal"


end timestep


start timestep kper="4" kstp="23" mode="normal"


end timestep


start timestep kper="4" kstp="24" mode="normal"


end timestep


start timestep kper="4" kstp="25" mode="normal"


end timestep


start timestep kper="4" kstp="26" mode="normal"


end timestep


start timestep kper="4" kstp="27" mode="normal"


end timestep


start timestep kper="4" kstp="28" mode="normal"


end timestep


start timestep kper="4" kstp="29" mode="normal"


end timestep


start timestep kper="4" kstp="30" mode="normal"

 UBDSV1 SAVING           STO-SS ON UNIT   1016 AT TIME STEP     30, STRESS PERIOD      4
 UBDSV1 SAVING     FLOW-JA-FACE ON UNIT   1016 AT TIME STEP     30, STRESS PERIOD      4
 UBDSV06 SAVING       DATA-SPDIS IN MODEL GWF              PACKAGE NPF             CONNECTED TO MODEL GWF              PACKAGE NPF              ON UNIT   1016 AT TIME STEP     30, STRESS PERIOD      4
 UBDSV06 SAVING              WEL IN MODEL GWF              PACKAGE GWF             CONNECTED TO MODEL GWF              PACKAGE WEL-1            ON UNIT   1016 AT TIME STEP     30, STRESS PERIOD      4
 UBDSV06 SAVING              CHD IN MODEL GWF              PACKAGE GWF             CONNECTED TO MODEL GWF              PACKAGE CHD-1            ON UNIT   1016 AT TIME STEP     30, STRESS PERIOD      4

 WEL PACKAGE (WEL-1) FLOW RATES   PERIOD      4   STEP       30
 -----------------------------------------------
   NUMBER   CELLID                    RATE      
 -----------------------------------------------
     1      (1,3,4)               10.000000     
 -----------------------------------------------



1
  HEAD IN LAYER   1 AT END OF TIME STEP  30 IN STRESS PERIOD    4
  ---------------------------------------------------------------------------

                1               2               3               4               5               6               7               8               9              10
 ................................................................................................................................................................
   1     0.185497        0.188116        0.191042        0.187596        0.165693        0.139217        0.116322        9.998521E-02    9.000401E-02    8.535858E-02
   2     0.182877        0.187810        0.197412        0.206054        0.170266        0.135635        0.109764        9.362972E-02    8.466823E-02    8.071316E-02
   3     0.175325        0.182836        0.204742        0.268943        0.173682        0.123295        9.346784E-02    8.010171E-02    7.432606E-02    7.211266E-02
   4     0.160263        0.163465        0.169776        0.173834        0.132224        9.039373E-02    6.071120E-02    5.898324E-02    6.042162E-02    6.129875E-02
   5     0.141997        0.140987        0.137062        0.124393        9.098630E-02    4.534501E-02     0.00000        3.469843E-02    4.707843E-02    5.136199E-02
   6     0.124742        0.121425        0.113092        9.568911E-02    6.198337E-02     0.00000        1.659524E-02    3.273206E-02    4.183167E-02    4.570878E-02
   7     0.110804        0.106878        9.819276E-02    8.328796E-02    6.125808E-02    3.618680E-02    3.364890E-02    3.780291E-02    4.180739E-02    4.393269E-02
   8     0.100791        9.709206E-02    8.951244E-02    7.801190E-02    6.357417E-02    4.984024E-02    4.401063E-02    4.302328E-02    4.366231E-02    4.428190E-02
   9     9.447614E-02    9.118678E-02    8.475303E-02    7.567303E-02    6.518646E-02    5.558936E-02    4.953012E-02    4.661726E-02    4.553667E-02    4.525071E-02
  10     9.145102E-02    8.842590E-02    8.263989E-02    7.474073E-02    6.590927E-02    5.780062E-02    5.190323E-02    4.837896E-02    4.661639E-02    4.593355E-02

 HEAD WILL BE SAVED ON UNIT 1017 AT END OF TIME STEP   30, STRESS PERIOD    4


  VOLUME BUDGET FOR ENTIRE MODEL AT END OF TIME STEP   30, STRESS PERIOD   4
  ---------------------------------------------------------------------------------------------------

     CUMULATIVE VOLUME      L**3       RATES FOR THIS TIME STEP      L**3/T          PACKAGE NAME    
     ------------------                 ------------------------                     ----------------

           IN:                                      IN:
           ---                                      ---
              STO-SS =           0.0000                STO-SS =           0.0000     STORAGE                          
                 WEL =        1200.0000                   WEL =          10.0000     WEL-1                            
                 CHD =           0.0000                   CHD =           0.0000     CHD-1                            

            TOTAL IN =        1200.0000              TOTAL IN =          10.0000

          OUT:                                     OUT:
          ----                                     ----
              STO-SS =           0.0000                STO-SS =           0.0000     STORAGE                          
                 WEL =           0.0000                   WEL =           0.0000     WEL-1                            
                 CHD =        1200.0000                   CHD =          10.0000     CHD-1                            

           TOTAL OUT =        1200.0000             TOTAL OUT =          10.0000

            IN - OUT =       1.8217E-07              IN - OUT =       6.8074E-10

 PERCENT DISCREPANCY =           0.00     PERCENT DISCREPANCY =           0.00




         TIME SUMMARY AT END OF TIME STEP   30 IN STRESS PERIOD    4
                    SECONDS     MINUTES      HOURS       DAYS        YEARS
                    -----------------------------------------------------------
   TIME STEP LENGTH  86400.      1440.0      24.000      1.0000     2.73785E-03
 STRESS PERIOD TIME 2.59200E+06  43200.      720.00      30.000     8.21355E-02
         TOTAL TIME 1.03680E+07 1.72800E+05  2880.0      120.00     0.32854    


end timestep


start timestep kper="5" kstp="1" mode="normal"


 OUTPUT CONTROL FOR STRESS PERIOD 5 IS REPEATED USING SETTINGS FROM A PREVIOUS STRESS PERIOD.

end timestep


start timestep kper="5" kstp="2" mode="normal"


end timestep


start timestep kper="5" kstp="3" mode="normal"


end timestep


start timestep kper="5" kstp="4" mode="normal"


end timestep


start timestep kper="5" kstp="5" mode="normal"


end timestep


start timestep kper="5" kstp="6" mode="normal"


end timestep


start timestep kper="5" kstp="7" mode="normal"


end timestep


start timestep kper="5" kstp="8" mode="normal"


end timestep


start timestep kper="5" kstp="9" mode="normal"


end timestep


start timestep kper="5" kstp="10" mode="normal"


end timestep


start timestep kper="5" kstp="11" mode="normal"


end timestep


start timestep kper="5" kstp="12" mode="normal"


end timestep


start timestep kper="5" kstp="13" mode="normal"


end timestep


start timestep kper="5" kstp="14" mode="normal"


end timestep


start timestep kper="5" kstp="15" mode="normal"


end timestep


start timestep kper="5" kstp="16" mode="normal"


end timestep


start timestep kper="5" kstp="17" mode="normal"


end timestep


start timestep kper="5" kstp="18" mode="normal"


end timestep


start timestep kper="5" kstp="19" mode="normal"


end timestep


start timestep kper="5" kstp="20" mode="normal"


end timestep


start timestep kper="5" kstp="21" mode="normal"


end timestep


start timestep kper="5" kstp="22" mode="normal"


end timestep


start timestep kper="5" kstp="23" mode="normal"


end timestep


start timestep kper="5" kstp="24" mode="normal"


end timestep


start timestep kper="5" kstp="25" mode="normal"


end timestep


start timestep kper="5" kstp="26" mode="normal"


end timestep


start timestep kper="5" kstp="27" mode="normal"


end timestep


start timestep kper="5" kstp="28" mode="normal"


end timestep


start timestep kper="5" kstp="29" mode="normal"


end timestep


start timestep kper="5" kstp="30" mode="normal"

 UBDSV1 SAVING           STO-SS ON UNIT   1016 AT TIME STEP     30, STRESS PERIOD      5
 UBDSV1 SAVING     FLOW-JA-FACE ON UNIT   1016 AT TIME STEP     30, STRESS PERIOD      5
 UBDSV06 SAVING       DATA-SPDIS IN MODEL GWF              PACKAGE NPF             CONNECTED TO MODEL GWF              PACKAGE NPF              ON UNIT   1016 AT TIME STEP     30, STRESS PERIOD      5
 UBDSV06 SAVING              WEL IN MODEL GWF              PACKAGE GWF             CONNECTED TO MODEL GWF              PACKAGE WEL-1            ON UNIT   1016 AT TIME STEP     30, STRESS PERIOD      5
 UBDSV06 SAVING              CHD IN MODEL GWF              PACKAGE GWF             CONNECTED TO MODEL GWF              PACKAGE CHD-1            ON UNIT   1016 AT TIME STEP     30, STRESS PERIOD      5

 WEL PACKAGE (WEL-1) FLOW RATES   PERIOD      5   STEP       30
 -----------------------------------------------
   NUMBER   CELLID                    RATE      
 -----------------------------------------------
     1      (1,3,4)               10.000000     
 -----------------------------------------------



1
  HEAD IN LAYER   1 AT END OF TIME STEP  30 IN STRESS PERIOD    5
  ---------------------------------------------------------------------------

                1               2               3               4               5               6               7               8               9              10
 ................................................................................................................................................................
   1     0.185497        0.188116        0.191042        0.187596        0.165693        0.139217        0.116322        9.998521E-02    9.000401E-02    8.535858E-02
   2     0.182877        0.187810        0.197412        0.206054        0.170266        0.135635        0.109764        9.362972E-02    8.466823E-02    8.071316E-02
   3     0.175325        0.182836        0.204742        0.268943        0.173682        0.123295        9.346784E-02    8.010171E-02    7.432606E-02    7.211266E-02
   4     0.160263        0.163465        0.169776        0.173834        0.132224        9.039373E-02    6.071120E-02    5.898324E-02    6.042162E-02    6.129875E-02
   5     0.141997        0.140987        0.137062        0.124393        9.098630E-02    4.534501E-02     0.00000        3.469843E-02    4.707843E-02    5.136199E-02
   6     0.124742        0.121425        0.113092        9.568911E-02    6.198337E-02     0.00000        1.659524E-02    3.273206E-02    4.183167E-02    4.570878E-02
   7     0.110804        0.106878        9.819276E-02    8.328796E-02    6.125808E-02    3.618680E-02    3.364890E-02    3.780291E-02    4.180739E-02    4.393269E-02
   8     0.100791        9.709206E-02    8.951244E-02    7.801190E-02    6.357417E-02    4.984024E-02    4.401063E-02    4.302328E-02    4.366231E-02    4.428190E-02
   9     9.447614E-02    9.118678E-02    8.475303E-02    7.567303E-02    6.518646E-02    5.558936E-02    4.953012E-02    4.661726E-02    4.553667E-02    4.525071E-02
  10     9.145102E-02    8.842590E-02    8.263989E-02    7.474073E-02    6.590927E-02    5.780062E-02    5.190323E-02    4.837896E-02    4.661639E-02    4.593355E-02

 HEAD WILL BE SAVED ON UNIT 1017 AT END OF TIME STEP   30, STRESS PERIOD    5


  VOLUME BUDGET FOR ENTIRE MODEL AT END OF TIME STEP   30, STRESS PERIOD   5
  ---------------------------------------------------------------------------------------------------

     CUMULATIVE VOLUME      L**3       RATES FOR THIS TIME STEP      L**3/T          PACKAGE NAME    
     ------------------                 ------------------------                     ----------------

           IN:                                      IN:
           ---                                      ---
              STO-SS =           0.0000                STO-SS =           0.0000     STORAGE                          
                 WEL =        1500.0000                   WEL =          10.0000     WEL-1                            
                 CHD =           0.0000                   CHD =           0.0000     CHD-1                            

            TOTAL IN =        1500.0000              TOTAL IN =          10.0000

          OUT:                                     OUT:
          ----                                     ----
              STO-SS =           0.0000                STO-SS =           0.0000     STORAGE                          
                 WEL =           0.0000                   WEL =           0.0000     WEL-1                            
                 CHD =        1500.0000                   CHD =          10.0000     CHD-1                            

           TOTAL OUT =        1500.0000             TOTAL OUT =          10.0000

            IN - OUT =       2.0148E-07              IN - OUT =       6.1263E-10

 PERCENT DISCREPANCY =           0.00     PERCENT DISCREPANCY =           0.00




         TIME SUMMARY AT END OF TIME STEP   30 IN STRESS PERIOD    5
                    SECONDS     MINUTES      HOURS       DAYS        YEARS
                    -----------------------------------------------------------
   TIME STEP LENGTH  86400.      1440.0      24.000      1.0000     2.73785E-03
 STRESS PERIOD TIME 2.59200E+06  43200.      720.00      30.000     8.21355E-02
         TOTAL TIME 1.29600E+07 2.16000E+05  3600.0      150.00     0.41068    


end timestep


start timestep kper="6" kstp="1" mode="normal"


 OUTPUT CONTROL FOR STRESS PERIOD 6 IS REPEATED USING SETTINGS FROM A PREVIOUS STRESS PERIOD.

end timestep


start timestep kper="6" kstp="2" mode="normal"


end timestep


start timestep kper="6" kstp="3" mode="normal"


end timestep


start timestep kper="6" kstp="4" mode="normal"


end timestep


start timestep kper="6" kstp="5" mode="normal"


end timestep


start timestep kper="6" kstp="6" mode="normal"


end timestep


start timestep kper="6" kstp="7" mode="normal"


end timestep


start timestep kper="6" kstp="8" mode="normal"


end timestep


start timestep kper="6" kstp="9" mode="normal"


end timestep


start timestep kper="6" kstp="10" mode="normal"


end timestep


start timestep kper="6" kstp="11" mode="normal"


end timestep


start timestep kper="6" kstp="12" mode="normal"


end timestep


start timestep kper="6" kstp="13" mode="normal"


end timestep


start timestep kper="6" kstp="14" mode="normal"


end timestep


start timestep kper="6" kstp="15" mode="normal"


end timestep


start timestep kper="6" kstp="16" mode="normal"


end timestep


start timestep kper="6" kstp="17" mode="normal"


end timestep


start timestep kper="6" kstp="18" mode="normal"


end timestep


start timestep kper="6" kstp="19" mode="normal"


end timestep


start timestep kper="6" kstp="20" mode="normal"


end timestep


start timestep kper="6" kstp="21" mode="normal"


end timestep


start timestep kper="6" kstp="22" mode="normal"


end timestep


start timestep kper="6" kstp="23" mode="normal"


end timestep


start timestep kper="6" kstp="24" mode="normal"


end timestep


start timestep kper="6" kstp="25" mode="normal"


end timestep


start timestep kper="6" kstp="26" mode="normal"


end timestep


start timestep kper="6" kstp="27" mode="normal"


end timestep


start timestep kper="6" kstp="28" mode="normal"


end timestep


start timestep kper="6" kstp="29" mode="normal"


end timestep


start timestep kper="6" kstp="30" mode="normal"

 UBDSV1 SAVING           STO-SS ON UNIT   1016 AT TIME STEP     30, STRESS PERIOD      6
 UBDSV1 SAVING     FLOW-JA-FACE ON UNIT   1016 AT TIME STEP     30, STRESS PERIOD      6
 UBDSV06 SAVING       DATA-SPDIS IN MODEL GWF              PACKAGE NPF             CONNECTED TO MODEL GWF              PACKAGE NPF              ON UNIT   1016 AT TIME STEP     30, STRESS PERIOD      6
 UBDSV06 SAVING              WEL IN MODEL GWF              PACKAGE GWF             CONNECTED TO MODEL GWF              PACKAGE WEL-1            ON UNIT   1016 AT TIME STEP     30, STRESS PERIOD      6
 UBDSV06 SAVING              CHD IN MODEL GWF              PACKAGE GWF             CONNECTED TO MODEL GWF              PACKAGE CHD-1            ON UNIT   1016 AT TIME STEP     30, STRESS PERIOD      6

 WEL PACKAGE (WEL-1) FLOW RATES   PERIOD      6   STEP       30
 -----------------------------------------------
   NUMBER   CELLID                    RATE      
 -----------------------------------------------
     1      (1,3,4)               10.000000     
 -----------------------------------------------



1
  HEAD IN LAYER   1 AT END OF TIME STEP  30 IN STRESS PERIOD    6
  ---------------------------------------------------------------------------

                1               2               3               4               5               6               7               8               9              10
 ................................................................................................................................................................
   1     0.185497        0.188116        0.191042        0.187596        0.165693        0.139217        0.116322        9.998521E-02    9.000401E-02    8.535858E-02
   2     0.182877        0.187810        0.197412        0.206054        0.170266        0.135635        0.109764        9.362972E-02    8.466823E-02    8.071316E-02
   3     0.175325        0.182836        0.204742        0.268943        0.173682        0.123295        9.346784E-02    8.010171E-02    7.432606E-02    7.211266E-02
   4     0.160263        0.163465        0.169776        0.173834        0.132224        9.039373E-02    6.071120E-02    5.898324E-02    6.042162E-02    6.129875E-02
   5     0.141997        0.140987        0.137062        0.124393        9.098630E-02    4.534501E-02     0.00000        3.469843E-02    4.707843E-02    5.136199E-02
   6     0.124742        0.121425        0.113092        9.568911E-02    6.198337E-02     0.00000        1.659524E-02    3.273206E-02    4.183167E-02    4.570878E-02
   7     0.110804        0.106878        9.819276E-02    8.328796E-02    6.125808E-02    3.618680E-02    3.364890E-02    3.780291E-02    4.180739E-02    4.393269E-02
   8     0.100791        9.709206E-02    8.951244E-02    7.801190E-02    6.357417E-02    4.984024E-02    4.401063E-02    4.302328E-02    4.366231E-02    4.428190E-02
   9     9.447614E-02    9.118678E-02    8.475303E-02    7.567303E-02    6.518646E-02    5.558936E-02    4.953012E-02    4.661726E-02    4.553667E-02    4.525071E-02
  10     9.145102E-02    8.842590E-02    8.263989E-02    7.474073E-02    6.590927E-02    5.780062E-02    5.190323E-02    4.837896E-02    4.661639E-02    4.593355E-02

 HEAD WILL BE SAVED ON UNIT 1017 AT END OF TIME STEP   30, STRESS PERIOD    6


  VOLUME BUDGET FOR ENTIRE MODEL AT END OF TIME STEP   30, STRESS PERIOD   6
  ---------------------------------------------------------------------------------------------------

     CUMULATIVE VOLUME      L**3       RATES FOR THIS TIME STEP      L**3/T          PACKAGE NAME    
     ------------------                 ------------------------                     ----------------

           IN:                                      IN:
           ---                                      ---
              STO-SS =           0.0000                STO-SS =           0.0000     STORAGE                          
                 WEL =        1800.0000                   WEL =          10.0000     WEL-1                            
                 CHD =           0.0000                   CHD =           0.0000     CHD-1                            

            TOTAL IN =        1800.0000              TOTAL IN =          10.0000

          OUT:                                     OUT:
          ----                                     ----
              STO-SS =           0.0000                STO-SS =           0.0000     STORAGE                          
                 WEL =           0.0000                   WEL =           0.0000     WEL-1                            
                 CHD =        1800.0000                   CHD =          10.0000     CHD-1                            

           TOTAL OUT =        1800.0000             TOTAL OUT =          10.0000

            IN - OUT =       2.1904E-07              IN - OUT =       5.6211E-10

 PERCENT DISCREPANCY =           0.00     PERCENT DISCREPANCY =           0.00




         TIME SUMMARY AT END OF TIME STEP   30 IN STRESS PERIOD    6
                    SECONDS     MINUTES      HOURS       DAYS        YEARS
                    -----------------------------------------------------------
   TIME STEP LENGTH  86400.      1440.0      24.000      1.0000     2.73785E-03
 STRESS PERIOD TIME 2.59200E+06  43200.      720.00      30.000     8.21355E-02
         TOTAL TIME 1.55520E+07 2.59200E+05  4320.0      180.00     0.49281    


end timestep


start timestep kper="7" kstp="1" mode="normal"


 OUTPUT CONTROL FOR STRESS PERIOD 7 IS REPEATED USING SETTINGS FROM A PREVIOUS STRESS PERIOD.

end timestep


start timestep kper="7" kstp="2" mode="normal"


end timestep


start timestep kper="7" kstp="3" mode="normal"


end timestep


start timestep kper="7" kstp="4" mode="normal"


end timestep


start timestep kper="7" kstp="5" mode="normal"


end timestep


start timestep kper="7" kstp="6" mode="normal"


end timestep


start timestep kper="7" kstp="7" mode="normal"


end timestep


start timestep kper="7" kstp="8" mode="normal"


end timestep


start timestep kper="7" kstp="9" mode="normal"


end timestep


start timestep kper="7" kstp="10" mode="normal"


end timestep


start timestep kper="7" kstp="11" mode="normal"


end timestep


start timestep kper="7" kstp="12" mode="normal"


end timestep


start timestep kper="7" kstp="13" mode="normal"


end timestep


start timestep kper="7" kstp="14" mode="normal"


end timestep


start timestep kper="7" kstp="15" mode="normal"


end timestep


start timestep kper="7" kstp="16" mode="normal"


end timestep


start timestep kper="7" kstp="17" mode="normal"


end timestep


start timestep kper="7" kstp="18" mode="normal"


end timestep


start timestep kper="7" kstp="19" mode="normal"


end timestep


start timestep kper="7" kstp="20" mode="normal"


end timestep


start timestep kper="7" kstp="21" mode="normal"


end timestep


start timestep kper="7" kstp="22" mode="normal"


end timestep


start timestep kper="7" kstp="23" mode="normal"


end timestep


start timestep kper="7" kstp="24" mode="normal"


end timestep


start timestep kper="7" kstp="25" mode="normal"


end timestep


start timestep kper="7" kstp="26" mode="normal"


end timestep


start timestep kper="7" kstp="27" mode="normal"


end timestep


start timestep kper="7" kstp="28" mode="normal"


end timestep


start timestep kper="7" kstp="29" mode="normal"


end timestep


start timestep kper="7" kstp="30" mode="normal"

 UBDSV1 SAVING           STO-SS ON UNIT   1016 AT TIME STEP     30, STRESS PERIOD      7
 UBDSV1 SAVING     FLOW-JA-FACE ON UNIT   1016 AT TIME STEP     30, STRESS PERIOD      7
 UBDSV06 SAVING       DATA-SPDIS IN MODEL GWF              PACKAGE NPF             CONNECTED TO MODEL GWF              PACKAGE NPF              ON UNIT   1016 AT TIME STEP     30, STRESS PERIOD      7
 UBDSV06 SAVING              WEL IN MODEL GWF              PACKAGE GWF             CONNECTED TO MODEL GWF              PACKAGE WEL-1            ON UNIT   1016 AT TIME STEP     30, STRESS PERIOD      7
 UBDSV06 SAVING              CHD IN MODEL GWF              PACKAGE GWF             CONNECTED TO MODEL GWF              PACKAGE CHD-1            ON UNIT   1016 AT TIME STEP     30, STRESS PERIOD      7

 WEL PACKAGE (WEL-1) FLOW RATES   PERIOD      7   STEP       30
 -----------------------------------------------
   NUMBER   CELLID                    RATE      
 -----------------------------------------------
     1      (1,3,4)               10.000000     
 -----------------------------------------------



1
  HEAD IN LAYER   1 AT END OF TIME STEP  30 IN STRESS PERIOD    7
  ---------------------------------------------------------------------------

                1               2               3               4               5               6               7               8               9              10
 ................................................................................................................................................................
   1     0.185497        0.188116        0.191042        0.187596        0.165693        0.139217        0.116322        9.998521E-02    9.000401E-02    8.535858E-02
   2     0.182877        0.187810        0.197412        0.206054        0.170266        0.135635        0.109764        9.362972E-02    8.466823E-02    8.071316E-02
   3     0.175325        0.182836        0.204742        0.268943        0.173682        0.123295        9.346784E-02    8.010171E-02    7.432606E-02    7.211266E-02
   4     0.160263        0.163465        0.169776        0.173834        0.132224        9.039373E-02    6.071120E-02    5.898324E-02    6.042162E-02    6.129875E-02
   5     0.141997        0.140987        0.137062        0.124393        9.098630E-02    4.534501E-02     0.00000        3.469843E-02    4.707843E-02    5.136199E-02
   6     0.124742        0.121425        0.113092        9.568911E-02    6.198337E-02     0.00000        1.659524E-02    3.273206E-02    4.183167E-02    4.570878E-02
   7     0.110804        0.106878        9.819276E-02    8.328796E-02    6.125808E-02    3.618680E-02    3.364890E-02    3.780291E-02    4.180739E-02    4.393269E-02
   8     0.100791        9.709206E-02    8.951244E-02    7.801190E-02    6.357417E-02    4.984024E-02    4.401063E-02    4.302328E-02    4.366231E-02    4.428190E-02
   9     9.447614E-02    9.118678E-02    8.475303E-02    7.567303E-02    6.518646E-02    5.558936E-02    4.953012E-02    4.661726E-02    4.553667E-02    4.525071E-02
  10     9.145102E-02    8.842590E-02    8.263989E-02    7.474073E-02    6.590927E-02    5.780062E-02    5.190323E-02    4.837896E-02    4.661639E-02    4.593355E-02

 HEAD WILL BE SAVED ON UNIT 1017 AT END OF TIME STEP   30, STRESS PERIOD    7


  VOLUME BUDGET FOR ENTIRE MODEL AT END OF TIME STEP   30, STRESS PERIOD   7
  ---------------------------------------------------------------------------------------------------

     CUMULATIVE VOLUME      L**3       RATES FOR THIS TIME STEP      L**3/T          PACKAGE NAME    
     ------------------                 ------------------------                     ----------------

           IN:                                      IN:
           ---                                      ---
              STO-SS =           0.0000                STO-SS =           0.0000     STORAGE                          
                 WEL =        2100.0000                   WEL =          10.0000     WEL-1                            
                 CHD =           0.0000                   CHD =           0.0000     CHD-1                            

            TOTAL IN =        2100.0000              TOTAL IN =          10.0000

          OUT:                                     OUT:
          ----                                     ----
              STO-SS =           0.0000                STO-SS =           0.0000     STORAGE                          
                 WEL =           0.0000                   WEL =           0.0000     WEL-1                            
                 CHD =        2100.0000                   CHD =          10.0000     CHD-1                            

           TOTAL OUT =        2100.0000             TOTAL OUT =          10.0000

            IN - OUT =       2.3527E-07              IN - OUT =       5.2269E-10

 PERCENT DISCREPANCY =           0.00     PERCENT DISCREPANCY =           0.00




         TIME SUMMARY AT END OF TIME STEP   30 IN STRESS PERIOD    7
                    SECONDS     MINUTES      HOURS       DAYS        YEARS
                    -----------------------------------------------------------
   TIME STEP LENGTH  86400.      1440.0      24.000      1.0000     2.73785E-03
 STRESS PERIOD TIME 2.59200E+06  43200.      720.00      30.000     8.21355E-02
         TOTAL TIME 1.81440E+07 3.02400E+05  5040.0      210.00     0.57495    


end timestep


start timestep kper="8" kstp="1" mode="normal"


 OUTPUT CONTROL FOR STRESS PERIOD 8 IS REPEATED USING SETTINGS FROM A PREVIOUS STRESS PERIOD.

end timestep


start timestep kper="8" kstp="2" mode="normal"


end timestep


start timestep kper="8" kstp="3" mode="normal"


end timestep


start timestep kper="8" kstp="4" mode="normal"


end timestep


start timestep kper="8" kstp="5" mode="normal"


end timestep


start timestep kper="8" kstp="6" mode="normal"


end timestep


start timestep kper="8" kstp="7" mode="normal"


end timestep


start timestep kper="8" kstp="8" mode="normal"


end timestep


start timestep kper="8" kstp="9" mode="normal"


end timestep


start timestep kper="8" kstp="10" mode="normal"


end timestep


start timestep kper="8" kstp="11" mode="normal"


end timestep


start timestep kper="8" kstp="12" mode="normal"


end timestep


start timestep kper="8" kstp="13" mode="normal"


end timestep


start timestep kper="8" kstp="14" mode="normal"


end timestep


start timestep kper="8" kstp="15" mode="normal"


end timestep


start timestep kper="8" kstp="16" mode="normal"


end timestep


start timestep kper="8" kstp="17" mode="normal"


end timestep


start timestep kper="8" kstp="18" mode="normal"


end timestep


start timestep kper="8" kstp="19" mode="normal"


end timestep


start timestep kper="8" kstp="20" mode="normal"


end timestep


start timestep kper="8" kstp="21" mode="normal"


end timestep


start timestep kper="8" kstp="22" mode="normal"


end timestep


start timestep kper="8" kstp="23" mode="normal"


end timestep


start timestep kper="8" kstp="24" mode="normal"


end timestep


start timestep kper="8" kstp="25" mode="normal"


end timestep


start timestep kper="8" kstp="26" mode="normal"


end timestep


start timestep kper="8" kstp="27" mode="normal"


end timestep


start timestep kper="8" kstp="28" mode="normal"


end timestep


start timestep kper="8" kstp="29" mode="normal"


end timestep


start timestep kper="8" kstp="30" mode="normal"

 UBDSV1 SAVING           STO-SS ON UNIT   1016 AT TIME STEP     30, STRESS PERIOD      8
 UBDSV1 SAVING     FLOW-JA-FACE ON UNIT   1016 AT TIME STEP     30, STRESS PERIOD      8
 UBDSV06 SAVING       DATA-SPDIS IN MODEL GWF              PACKAGE NPF             CONNECTED TO MODEL GWF              PACKAGE NPF              ON UNIT   1016 AT TIME STEP     30, STRESS PERIOD      8
 UBDSV06 SAVING              WEL IN MODEL GWF              PACKAGE GWF             CONNECTED TO MODEL GWF              PACKAGE WEL-1            ON UNIT   1016 AT TIME STEP     30, STRESS PERIOD      8
 UBDSV06 SAVING              CHD IN MODEL GWF              PACKAGE GWF             CONNECTED TO MODEL GWF              PACKAGE CHD-1            ON UNIT   1016 AT TIME STEP     30, STRESS PERIOD      8

 WEL PACKAGE (WEL-1) FLOW RATES   PERIOD      8   STEP       30
 -----------------------------------------------
   NUMBER   CELLID                    RATE      
 -----------------------------------------------
     1      (1,3,4)               10.000000     
 -----------------------------------------------



1
  HEAD IN LAYER   1 AT END OF TIME STEP  30 IN STRESS PERIOD    8
  ---------------------------------------------------------------------------

                1               2               3               4               5               6               7               8               9              10
 ................................................................................................................................................................
   1     0.185497        0.188116        0.191042        0.187596        0.165693        0.139217        0.116322        9.998521E-02    9.000401E-02    8.535858E-02
   2     0.182877        0.187810        0.197412        0.206054        0.170266        0.135635        0.109764        9.362972E-02    8.466823E-02    8.071316E-02
   3     0.175325        0.182836        0.204742        0.268943        0.173682        0.123295        9.346784E-02    8.010171E-02    7.432606E-02    7.211266E-02
   4     0.160263        0.163465        0.169776        0.173834        0.132224        9.039373E-02    6.071120E-02    5.898324E-02    6.042162E-02    6.129875E-02
   5     0.141997        0.140987        0.137062        0.124393        9.098630E-02    4.534501E-02     0.00000        3.469843E-02    4.707843E-02    5.136199E-02
   6     0.124742        0.121425        0.113092        9.568911E-02    6.198337E-02     0.00000        1.659524E-02    3.273206E-02    4.183167E-02    4.570878E-02
   7     0.110804        0.106878        9.819276E-02    8.328796E-02    6.125808E-02    3.618680E-02    3.364890E-02    3.780291E-02    4.180739E-02    4.393269E-02
   8     0.100791        9.709206E-02    8.951244E-02    7.801190E-02    6.357417E-02    4.984024E-02    4.401063E-02    4.302328E-02    4.366231E-02    4.428190E-02
   9     9.447614E-02    9.118678E-02    8.475303E-02    7.567303E-02    6.518646E-02    5.558936E-02    4.953012E-02    4.661726E-02    4.553667E-02    4.525071E-02
  10     9.145102E-02    8.842590E-02    8.263989E-02    7.474073E-02    6.590927E-02    5.780062E-02    5.190323E-02    4.837896E-02    4.661639E-02    4.593355E-02

 HEAD WILL BE SAVED ON UNIT 1017 AT END OF TIME STEP   30, STRESS PERIOD    8


  VOLUME BUDGET FOR ENTIRE MODEL AT END OF TIME STEP   30, STRESS PERIOD   8
  ---------------------------------------------------------------------------------------------------

     CUMULATIVE VOLUME      L**3       RATES FOR THIS TIME STEP      L**3/T          PACKAGE NAME    
     ------------------                 ------------------------                     ----------------

           IN:                                      IN:
           ---                                      ---
              STO-SS =           0.0000                STO-SS =           0.0000     STORAGE                          
                 WEL =        2400.0000                   WEL =          10.0000     WEL-1                            
                 CHD =           0.0000                   CHD =           0.0000     CHD-1                            

            TOTAL IN =        2400.0000              TOTAL IN =          10.0000

          OUT:                                     OUT:
          ----                                     ----
              STO-SS =           0.0000                STO-SS =           0.0000     STORAGE                          
                 WEL =           0.0000                   WEL =           0.0000     WEL-1                            
                 CHD =        2400.0000                   CHD =          10.0000     CHD-1                            

           TOTAL OUT =        2400.0000             TOTAL OUT =          10.0000

            IN - OUT =       2.5044E-07              IN - OUT =       4.9079E-10

 PERCENT DISCREPANCY =           0.00     PERCENT DISCREPANCY =           0.00




         TIME SUMMARY AT END OF TIME STEP   30 IN STRESS PERIOD    8
                    SECONDS     MINUTES      HOURS       DAYS        YEARS
                    -----------------------------------------------------------
   TIME STEP LENGTH  86400.      1440.0      24.000      1.0000     2.73785E-03
 STRESS PERIOD TIME 2.59200E+06  43200.      720.00      30.000     8.21355E-02
         TOTAL TIME 2.07360E+07 3.45600E+05  5760.0      240.00     0.65708    


end timestep


start timestep kper="9" kstp="1" mode="normal"


 OUTPUT CONTROL FOR STRESS PERIOD 9 IS REPEATED USING SETTINGS FROM A PREVIOUS STRESS PERIOD.

end timestep


start timestep kper="9" kstp="2" mode="normal"


end timestep


start timestep kper="9" kstp="3" mode="normal"


end timestep


start timestep kper="9" kstp="4" mode="normal"


end timestep


start timestep kper="9" kstp="5" mode="normal"


end timestep


start timestep kper="9" kstp="6" mode="normal"


end timestep


start timestep kper="9" kstp="7" mode="normal"


end timestep


start timestep kper="9" kstp="8" mode="normal"


end timestep


start timestep kper="9" kstp="9" mode="normal"


end timestep


start timestep kper="9" kstp="10" mode="normal"


end timestep


start timestep kper="9" kstp="11" mode="normal"


end timestep


start timestep kper="9" kstp="12" mode="normal"


end timestep


start timestep kper="9" kstp="13" mode="normal"


end timestep


start timestep kper="9" kstp="14" mode="normal"


end timestep


start timestep kper="9" kstp="15" mode="normal"


end timestep


start timestep kper="9" kstp="16" mode="normal"


end timestep


start timestep kper="9" kstp="17" mode="normal"


end timestep


start timestep kper="9" kstp="18" mode="normal"


end timestep


start timestep kper="9" kstp="19" mode="normal"


end timestep


start timestep kper="9" kstp="20" mode="normal"


end timestep


start timestep kper="9" kstp="21" mode="normal"


end timestep


start timestep kper="9" kstp="22" mode="normal"


end timestep


start timestep kper="9" kstp="23" mode="normal"


end timestep


start timestep kper="9" kstp="24" mode="normal"


end timestep


start timestep kper="9" kstp="25" mode="normal"


end timestep


start timestep kper="9" kstp="26" mode="normal"


end timestep


start timestep kper="9" kstp="27" mode="normal"


end timestep


start timestep kper="9" kstp="28" mode="normal"


end timestep


start timestep kper="9" kstp="29" mode="normal"


end timestep


start timestep kper="9" kstp="30" mode="normal"

 UBDSV1 SAVING           STO-SS ON UNIT   1016 AT TIME STEP     30, STRESS PERIOD      9
 UBDSV1 SAVING     FLOW-JA-FACE ON UNIT   1016 AT TIME STEP     30, STRESS PERIOD      9
 UBDSV06 SAVING       DATA-SPDIS IN MODEL GWF              PACKAGE NPF             CONNECTED TO MODEL GWF              PACKAGE NPF              ON UNIT   1016 AT TIME STEP     30, STRESS PERIOD      9
 UBDSV06 SAVING              WEL IN MODEL GWF              PACKAGE GWF             CONNECTED TO MODEL GWF              PACKAGE WEL-1            ON UNIT   1016 AT TIME STEP     30, STRESS PERIOD      9
 UBDSV06 SAVING              CHD IN MODEL GWF              PACKAGE GWF             CONNECTED TO MODEL GWF              PACKAGE CHD-1            ON UNIT   1016 AT TIME STEP     30, STRESS PERIOD      9

 WEL PACKAGE (WEL-1) FLOW RATES   PERIOD      9   STEP       30
 -----------------------------------------------
   NUMBER   CELLID                    RATE      
 -----------------------------------------------
     1      (1,3,4)               10.000000     
 -----------------------------------------------



1
  HEAD IN LAYER   1 AT END OF TIME STEP  30 IN STRESS PERIOD    9
  ---------------------------------------------------------------------------

                1               2               3               4               5               6               7               8               9              10
 ................................................................................................................................................................
   1     0.185497        0.188116        0.191042        0.187596        0.165693        0.139217        0.116322        9.998521E-02    9.000401E-02    8.535858E-02
   2     0.182877        0.187810        0.197412        0.206054        0.170266        0.135635        0.109764        9.362972E-02    8.466823E-02    8.071316E-02
   3     0.175325        0.182836        0.204742        0.268943        0.173682        0.123295        9.346784E-02    8.010171E-02    7.432606E-02    7.211266E-02
   4     0.160263        0.163465        0.169776        0.173834        0.132224        9.039373E-02    6.071120E-02    5.898324E-02    6.042162E-02    6.129875E-02
   5     0.141997        0.140987        0.137062        0.124393        9.098630E-02    4.534501E-02     0.00000        3.469843E-02    4.707843E-02    5.136199E-02
   6     0.124742        0.121425        0.113092        9.568911E-02    6.198337E-02     0.00000        1.659524E-02    3.273206E-02    4.183167E-02    4.570878E-02
   7     0.110804        0.106878        9.819276E-02    8.328796E-02    6.125808E-02    3.618680E-02    3.364890E-02    3.780291E-02    4.180739E-02    4.393269E-02
   8     0.100791        9.709206E-02    8.951244E-02    7.801190E-02    6.357417E-02    4.984024E-02    4.401063E-02    4.302328E-02    4.366231E-02    4.428190E-02
   9     9.447614E-02    9.118678E-02    8.475303E-02    7.567303E-02    6.518646E-02    5.558936E-02    4.953012E-02    4.661726E-02    4.553667E-02    4.525071E-02
  10     9.145102E-02    8.842590E-02    8.263989E-02    7.474073E-02    6.590927E-02    5.780062E-02    5.190323E-02    4.837896E-02    4.661639E-02    4.593355E-02

 HEAD WILL BE SAVED ON UNIT 1017 AT END OF TIME STEP   30, STRESS PERIOD    9


  VOLUME BUDGET FOR ENTIRE MODEL AT END OF TIME STEP   30, STRESS PERIOD   9
  ---------------------------------------------------------------------------------------------------

     CUMULATIVE VOLUME      L**3       RATES FOR THIS TIME STEP      L**3/T          PACKAGE NAME    
     ------------------                 ------------------------                     ----------------

           IN:                                      IN:
           ---                                      ---
              STO-SS =           0.0000                STO-SS =           0.0000     STORAGE                          
                 WEL =        2700.0000                   WEL =          10.0000     WEL-1                            
                 CHD =           0.0000                   CHD =           0.0000     CHD-1                            

            TOTAL IN =        2700.0000              TOTAL IN =          10.0000

          OUT:                                     OUT:
          ----                                     ----
              STO-SS =           0.0000                STO-SS =           0.0000     STORAGE                          
                 WEL =           0.0000                   WEL =           0.0000     WEL-1                            
                 CHD =        2700.0000                   CHD =          10.0000     CHD-1                            

           TOTAL OUT =        2700.0000             TOTAL OUT =          10.0000

            IN - OUT =       2.6474E-07              IN - OUT =       4.6428E-10

 PERCENT DISCREPANCY =           0.00     PERCENT DISCREPANCY =           0.00




         TIME SUMMARY AT END OF TIME STEP   30 IN STRESS PERIOD    9
                    SECONDS     MINUTES      HOURS       DAYS        YEARS
                    -----------------------------------------------------------
   TIME STEP LENGTH  86400.      1440.0      24.000      1.0000     2.73785E-03
 STRESS PERIOD TIME 2.59200E+06  43200.      720.00      30.000     8.21355E-02
         TOTAL TIME 2.33280E+07 3.88800E+05  6480.0      270.00     0.73922    


end timestep


start timestep kper="10" kstp="1" mode="normal"


 OUTPUT CONTROL FOR STRESS PERIOD 10 IS REPEATED USING SETTINGS FROM A PREVIOUS STRESS PERIOD.

end timestep


start timestep kper="10" kstp="2" mode="normal"


end timestep


start timestep kper="10" kstp="3" mode="normal"


end timestep


start timestep kper="10" kstp="4" mode="normal"


end timestep


start timestep kper="10" kstp="5" mode="normal"


end timestep


start timestep kper="10" kstp="6" mode="normal"


end timestep


start timestep kper="10" kstp="7" mode="normal"


end timestep


start timestep kper="10" kstp="8" mode="normal"


end timestep


start timestep kper="10" kstp="9" mode="normal"


end timestep


start timestep kper="10" kstp="10" mode="normal"


end timestep


start timestep kper="10" kstp="11" mode="normal"


end timestep


start timestep kper="10" kstp="12" mode="normal"


end timestep


start timestep kper="10" kstp="13" mode="normal"


end timestep


start timestep kper="10" kstp="14" mode="normal"


end timestep


start timestep kper="10" kstp="15" mode="normal"


end timestep


start timestep kper="10" kstp="16" mode="normal"


end timestep


start timestep kper="10" kstp="17" mode="normal"


end timestep


start timestep kper="10" kstp="18" mode="normal"


end timestep


start timestep kper="10" kstp="19" mode="normal"


end timestep


start timestep kper="10" kstp="20" mode="normal"


end timestep


start timestep kper="10" kstp="21" mode="normal"


end timestep


start timestep kper="10" kstp="22" mode="normal"


end timestep


start timestep kper="10" kstp="23" mode="normal"


end timestep


start timestep kper="10" kstp="24" mode="normal"


end timestep


start timestep kper="10" kstp="25" mode="normal"


end timestep


start timestep kper="10" kstp="26" mode="normal"


end timestep


start timestep kper="10" kstp="27" mode="normal"


end timestep


start timestep kper="10" kstp="28" mode="normal"


end timestep


start timestep kper="10" kstp="29" mode="normal"


end timestep


start timestep kper="10" kstp="30" mode="normal"

 UBDSV1 SAVING           STO-SS ON UNIT   1016 AT TIME STEP     30, STRESS PERIOD     10
 UBDSV1 SAVING     FLOW-JA-FACE ON UNIT   1016 AT TIME STEP     30, STRESS PERIOD     10
 UBDSV06 SAVING       DATA-SPDIS IN MODEL GWF              PACKAGE NPF             CONNECTED TO MODEL GWF              PACKAGE NPF              ON UNIT   1016 AT TIME STEP     30, STRESS PERIOD     10
 UBDSV06 SAVING              WEL IN MODEL GWF              PACKAGE GWF             CONNECTED TO MODEL GWF              PACKAGE WEL-1            ON UNIT   1016 AT TIME STEP     30, STRESS PERIOD     10
 UBDSV06 SAVING              CHD IN MODEL GWF              PACKAGE GWF             CONNECTED TO MODEL GWF              PACKAGE CHD-1            ON UNIT   1016 AT TIME STEP     30, STRESS PERIOD     10

 WEL PACKAGE (WEL-1) FLOW RATES   PERIOD     10   STEP       30
 -----------------------------------------------
   NUMBER   CELLID                    RATE      
 -----------------------------------------------
     1      (1,3,4)               10.000000     
 -----------------------------------------------



1
  HEAD IN LAYER   1 AT END OF TIME STEP  30 IN STRESS PERIOD   10
  ---------------------------------------------------------------------------

                1               2               3               4               5               6               7               8               9              10
 ................................................................................................................................................................
   1     0.185497        0.188116        0.191042        0.187596        0.165693        0.139217        0.116322        9.998521E-02    9.000401E-02    8.535858E-02
   2     0.182877        0.187810        0.197412        0.206054        0.170266        0.135635        0.109764        9.362972E-02    8.466823E-02    8.071316E-02
   3     0.175325        0.182836        0.204742        0.268943        0.173682        0.123295        9.346784E-02    8.010171E-02    7.432606E-02    7.211266E-02
   4     0.160263        0.163465        0.169776        0.173834        0.132224        9.039373E-02    6.071120E-02    5.898324E-02    6.042162E-02    6.129875E-02
   5     0.141997        0.140987        0.137062        0.124393        9.098630E-02    4.534501E-02     0.00000        3.469843E-02    4.707843E-02    5.136199E-02
   6     0.124742        0.121425        0.113092        9.568911E-02    6.198337E-02     0.00000        1.659524E-02    3.273206E-02    4.183167E-02    4.570878E-02
   7     0.110804        0.106878        9.819276E-02    8.328796E-02    6.125808E-02    3.618680E-02    3.364890E-02    3.780291E-02    4.180739E-02    4.393269E-02
   8     0.100791        9.709206E-02    8.951244E-02    7.801190E-02    6.357417E-02    4.984024E-02    4.401063E-02    4.302328E-02    4.366231E-02    4.428190E-02
   9     9.447614E-02    9.118678E-02    8.475303E-02    7.567303E-02    6.518646E-02    5.558936E-02    4.953012E-02    4.661726E-02    4.553667E-02    4.525071E-02
  10     9.145102E-02    8.842590E-02    8.263989E-02    7.474073E-02    6.590927E-02    5.780062E-02    5.190323E-02    4.837896E-02    4.661639E-02    4.593355E-02

 HEAD WILL BE SAVED ON UNIT 1017 AT END OF TIME STEP   30, STRESS PERIOD   10


  VOLUME BUDGET FOR ENTIRE MODEL AT END OF TIME STEP   30, STRESS PERIOD  10
  ---------------------------------------------------------------------------------------------------

     CUMULATIVE VOLUME      L**3       RATES FOR THIS TIME STEP      L**3/T          PACKAGE NAME    
     ------------------                 ------------------------                     ----------------

           IN:                                      IN:
           ---                                      ---
              STO-SS =           0.0000                STO-SS =           0.0000     STORAGE                          
                 WEL =        3000.0000                   WEL =          10.0000     WEL-1                            
                 CHD =           0.0000                   CHD =           0.0000     CHD-1                            

            TOTAL IN =        3000.0000              TOTAL IN =          10.0000

          OUT:                                     OUT:
          ----                                     ----
              STO-SS =           0.0000                STO-SS =           0.0000     STORAGE                          
                 WEL =           0.0000                   WEL =           0.0000     WEL-1                            
                 CHD =        3000.0000                   CHD =          10.0000     CHD-1                            

           TOTAL OUT =        3000.0000             TOTAL OUT =          10.0000

            IN - OUT =       2.7831E-07              IN - OUT =       4.4179E-10

 PERCENT DISCREPANCY =           0.00     PERCENT DISCREPANCY =           0.00




         TIME SUMMARY AT END OF TIME STEP   30 IN STRESS PERIOD   10
                    SECONDS     MINUTES      HOURS       DAYS        YEARS
                    -----------------------------------------------------------
   TIME STEP LENGTH  86400.      1440.0      24.000      1.0000     2.73785E-03
 STRESS PERIOD TIME 2.59200E+06  43200.      720.00      30.000     8.21355E-02
         TOTAL TIME 2.59200E+07 4.32000E+05  7200.0      300.00     0.82136    


end timestep


start timestep kper="11" kstp="1" mode="normal"


 OUTPUT CONTROL FOR STRESS PERIOD 11 IS REPEATED USING SETTINGS FROM A PREVIOUS STRESS PERIOD.

end timestep


start timestep kper="11" kstp="2" mode="normal"


end timestep


start timestep kper="11" kstp="3" mode="normal"


end timestep


start timestep kper="11" kstp="4" mode="normal"


end timestep


start timestep kper="11" kstp="5" mode="normal"


end timestep


start timestep kper="11" kstp="6" mode="normal"


end timestep


start timestep kper="11" kstp="7" mode="normal"


end timestep


start timestep kper="11" kstp="8" mode="normal"


end timestep


start timestep kper="11" kstp="9" mode="normal"


end timestep


start timestep kper="11" kstp="10" mode="normal"


end timestep


start timestep kper="11" kstp="11" mode="normal"


end timestep


start timestep kper="11" kstp="12" mode="normal"


end timestep


start timestep kper="11" kstp="13" mode="normal"


end timestep


start timestep kper="11" kstp="14" mode="normal"


end timestep


start timestep kper="11" kstp="15" mode="normal"


end timestep


start timestep kper="11" kstp="16" mode="normal"


end timestep


start timestep kper="11" kstp="17" mode="normal"


end timestep


start timestep kper="11" kstp="18" mode="normal"


end timestep


start timestep kper="11" kstp="19" mode="normal"


end timestep


start timestep kper="11" kstp="20" mode="normal"


end timestep


start timestep kper="11" kstp="21" mode="normal"


end timestep


start timestep kper="11" kstp="22" mode="normal"


end timestep


start timestep kper="11" kstp="23" mode="normal"


end timestep


start timestep kper="11" kstp="24" mode="normal"


end timestep


start timestep kper="11" kstp="25" mode="normal"


end timestep


start timestep kper="11" kstp="26" mode="normal"


end timestep


start timestep kper="11" kstp="27" mode="normal"


end timestep


start timestep kper="11" kstp="28" mode="normal"


end timestep


start timestep kper="11" kstp="29" mode="normal"


end timestep


start timestep kper="11" kstp="30" mode="normal"

 UBDSV1 SAVING           STO-SS ON UNIT   1016 AT TIME STEP     30, STRESS PERIOD     11
 UBDSV1 SAVING     FLOW-JA-FACE ON UNIT   1016 AT TIME STEP     30, STRESS PERIOD     11
 UBDSV06 SAVING       DATA-SPDIS IN MODEL GWF              PACKAGE NPF             CONNECTED TO MODEL GWF              PACKAGE NPF              ON UNIT   1016 AT TIME STEP     30, STRESS PERIOD     11
 UBDSV06 SAVING              WEL IN MODEL GWF              PACKAGE GWF             CONNECTED TO MODEL GWF              PACKAGE WEL-1            ON UNIT   1016 AT TIME STEP     30, STRESS PERIOD     11
 UBDSV06 SAVING              CHD IN MODEL GWF              PACKAGE GWF             CONNECTED TO MODEL GWF              PACKAGE CHD-1            ON UNIT   1016 AT TIME STEP     30, STRESS PERIOD     11

 WEL PACKAGE (WEL-1) FLOW RATES   PERIOD     11   STEP       30
 -----------------------------------------------
   NUMBER   CELLID                    RATE      
 -----------------------------------------------
     1      (1,3,4)               10.000000     
 -----------------------------------------------



1
  HEAD IN LAYER   1 AT END OF TIME STEP  30 IN STRESS PERIOD   11
  ---------------------------------------------------------------------------

                1               2               3               4               5               6               7               8               9              10
 ................................................................................................................................................................
   1     0.185497        0.188116        0.191042        0.187596        0.165693        0.139217        0.116322        9.998521E-02    9.000401E-02    8.535858E-02
   2     0.182877        0.187810        0.197412        0.206054        0.170266        0.135635        0.109764        9.362972E-02    8.466823E-02    8.071316E-02
   3     0.175325        0.182836        0.204742        0.268943        0.173682        0.123295        9.346784E-02    8.010171E-02    7.432606E-02    7.211266E-02
   4     0.160263        0.163465        0.169776        0.173834        0.132224        9.039373E-02    6.071120E-02    5.898324E-02    6.042162E-02    6.129875E-02
   5     0.141997        0.140987        0.137062        0.124393        9.098630E-02    4.534501E-02     0.00000        3.469843E-02    4.707843E-02    5.136199E-02
   6     0.124742        0.121425        0.113092        9.568911E-02    6.198337E-02     0.00000        1.659524E-02    3.273206E-02    4.183167E-02    4.570878E-02
   7     0.110804        0.106878        9.819276E-02    8.328796E-02    6.125808E-02    3.618680E-02    3.364890E-02    3.780291E-02    4.180739E-02    4.393269E-02
   8     0.100791        9.709206E-02    8.951244E-02    7.801190E-02    6.357417E-02    4.984024E-02    4.401063E-02    4.302328E-02    4.366231E-02    4.428190E-02
   9     9.447614E-02    9.118678E-02    8.475303E-02    7.567303E-02    6.518646E-02    5.558936E-02    4.953012E-02    4.661726E-02    4.553667E-02    4.525071E-02
  10     9.145102E-02    8.842590E-02    8.263989E-02    7.474073E-02    6.590927E-02    5.780062E-02    5.190323E-02    4.837896E-02    4.661639E-02    4.593355E-02

 HEAD WILL BE SAVED ON UNIT 1017 AT END OF TIME STEP   30, STRESS PERIOD   11


  VOLUME BUDGET FOR ENTIRE MODEL AT END OF TIME STEP   30, STRESS PERIOD  11
  ---------------------------------------------------------------------------------------------------

     CUMULATIVE VOLUME      L**3       RATES FOR THIS TIME STEP      L**3/T          PACKAGE NAME    
     ------------------                 ------------------------                     ----------------

           IN:                                      IN:
           ---                                      ---
              STO-SS =           0.0000                STO-SS =           0.0000     STORAGE                          
                 WEL =        3300.0000                   WEL =          10.0000     WEL-1                            
                 CHD =           0.0000                   CHD =           0.0000     CHD-1                            

            TOTAL IN =        3300.0000              TOTAL IN =          10.0000

          OUT:                                     OUT:
          ----                                     ----
              STO-SS =           0.0000                STO-SS =           0.0000     STORAGE                          
                 WEL =           0.0000                   WEL =           0.0000     WEL-1                            
                 CHD =        3300.0000                   CHD =          10.0000     CHD-1                            

           TOTAL OUT =        3300.0000             TOTAL OUT =          10.0000

            IN - OUT =       2.9126E-07              IN - OUT =       4.2238E-10

 PERCENT DISCREPANCY =           0.00     PERCENT DISCREPANCY =           0.00




         TIME SUMMARY AT END OF TIME STEP   30 IN STRESS PERIOD   11
                    SECONDS     MINUTES      HOURS       DAYS        YEARS
                    -----------------------------------------------------------
   TIME STEP LENGTH  86400.      1440.0      24.000      1.0000     2.73785E-03
 STRESS PERIOD TIME 2.59200E+06  43200.      720.00      30.000     8.21355E-02
         TOTAL TIME 2.85120E+07 4.75200E+05  7920.0      330.00     0.90349    


end timestep


start timestep kper="12" kstp="1" mode="normal"


 OUTPUT CONTROL FOR STRESS PERIOD 12 IS REPEATED USING SETTINGS FROM A PREVIOUS STRESS PERIOD.

end timestep


start timestep kper="12" kstp="2" mode="normal"


end timestep


start timestep kper="12" kstp="3" mode="normal"


end timestep


start timestep kper="12" kstp="4" mode="normal"


end timestep


start timestep kper="12" kstp="5" mode="normal"


end timestep


start timestep kper="12" kstp="6" mode="normal"


end timestep


start timestep kper="12" kstp="7" mode="normal"


end timestep


start timestep kper="12" kstp="8" mode="normal"


end timestep


start timestep kper="12" kstp="9" mode="normal"


end timestep


start timestep kper="12" kstp="10" mode="normal"


end timestep


start timestep kper="12" kstp="11" mode="normal"


end timestep


start timestep kper="12" kstp="12" mode="normal"


end timestep


start timestep kper="12" kstp="13" mode="normal"


end timestep


start timestep kper="12" kstp="14" mode="normal"


end timestep


start timestep kper="12" kstp="15" mode="normal"


end timestep


start timestep kper="12" kstp="16" mode="normal"


end timestep


start timestep kper="12" kstp="17" mode="normal"


end timestep


start timestep kper="12" kstp="18" mode="normal"


end timestep


start timestep kper="12" kstp="19" mode="normal"


end timestep


start timestep kper="12" kstp="20" mode="normal"


end timestep


start timestep kper="12" kstp="21" mode="normal"


end timestep


start timestep kper="12" kstp="22" mode="normal"


end timestep


start timestep kper="12" kstp="23" mode="normal"


end timestep


start timestep kper="12" kstp="24" mode="normal"


end timestep


start timestep kper="12" kstp="25" mode="normal"


end timestep


start timestep kper="12" kstp="26" mode="normal"


end timestep


start timestep kper="12" kstp="27" mode="normal"


end timestep


start timestep kper="12" kstp="28" mode="normal"


end timestep


start timestep kper="12" kstp="29" mode="normal"


end timestep


start timestep kper="12" kstp="30" mode="normal"

 UBDSV1 SAVING           STO-SS ON UNIT   1016 AT TIME STEP     30, STRESS PERIOD     12
 UBDSV1 SAVING     FLOW-JA-FACE ON UNIT   1016 AT TIME STEP     30, STRESS PERIOD     12
 UBDSV06 SAVING       DATA-SPDIS IN MODEL GWF              PACKAGE NPF             CONNECTED TO MODEL GWF              PACKAGE NPF              ON UNIT   1016 AT TIME STEP     30, STRESS PERIOD     12
 UBDSV06 SAVING              WEL IN MODEL GWF              PACKAGE GWF             CONNECTED TO MODEL GWF              PACKAGE WEL-1            ON UNIT   1016 AT TIME STEP     30, STRESS PERIOD     12
 UBDSV06 SAVING              CHD IN MODEL GWF              PACKAGE GWF             CONNECTED TO MODEL GWF              PACKAGE CHD-1            ON UNIT   1016 AT TIME STEP     30, STRESS PERIOD     12

 WEL PACKAGE (WEL-1) FLOW RATES   PERIOD     12   STEP       30
 -----------------------------------------------
   NUMBER   CELLID                    RATE      
 -----------------------------------------------
     1      (1,3,4)               10.000000     
 -----------------------------------------------



1
  HEAD IN LAYER   1 AT END OF TIME STEP  30 IN STRESS PERIOD   12
  ---------------------------------------------------------------------------

                1               2               3               4               5               6               7               8               9              10
 ................................................................................................................................................................
   1     0.185497        0.188116        0.191042        0.187596        0.165693        0.139217        0.116322        9.998521E-02    9.000401E-02    8.535858E-02
   2     0.182877        0.187810        0.197412        0.206054        0.170266        0.135635        0.109764        9.362972E-02    8.466823E-02    8.071316E-02
   3     0.175325        0.182836        0.204742        0.268943        0.173682        0.123295        9.346784E-02    8.010171E-02    7.432606E-02    7.211266E-02
   4     0.160263        0.163465        0.169776        0.173834        0.132224        9.039373E-02    6.071120E-02    5.898324E-02    6.042162E-02    6.129875E-02
   5     0.141997        0.140987        0.137062        0.124393        9.098630E-02    4.534501E-02     0.00000        3.469843E-02    4.707843E-02    5.136199E-02
   6     0.124742        0.121425        0.113092        9.568911E-02    6.198337E-02     0.00000        1.659524E-02    3.273206E-02    4.183167E-02    4.570878E-02
   7     0.110804        0.106878        9.819276E-02    8.328796E-02    6.125808E-02    3.618680E-02    3.364890E-02    3.780291E-02    4.180739E-02    4.393269E-02
   8     0.100791        9.709206E-02    8.951244E-02    7.801190E-02    6.357417E-02    4.984024E-02    4.401063E-02    4.302328E-02    4.366231E-02    4.428190E-02
   9     9.447614E-02    9.118678E-02    8.475303E-02    7.567303E-02    6.518646E-02    5.558936E-02    4.953012E-02    4.661726E-02    4.553667E-02    4.525071E-02
  10     9.145102E-02    8.842590E-02    8.263989E-02    7.474073E-02    6.590927E-02    5.780062E-02    5.190323E-02    4.837896E-02    4.661639E-02    4.593355E-02

 HEAD WILL BE SAVED ON UNIT 1017 AT END OF TIME STEP   30, STRESS PERIOD   12


  VOLUME BUDGET FOR ENTIRE MODEL AT END OF TIME STEP   30, STRESS PERIOD  12
  ---------------------------------------------------------------------------------------------------

     CUMULATIVE VOLUME      L**3       RATES FOR THIS TIME STEP      L**3/T          PACKAGE NAME    
     ------------------                 ------------------------                     ----------------

           IN:                                      IN:
           ---                                      ---
              STO-SS =           0.0000                STO-SS =           0.0000     STORAGE                          
                 WEL =        3600.0000                   WEL =          10.0000     WEL-1                            
                 CHD =           0.0000                   CHD =           0.0000     CHD-1                            

            TOTAL IN =        3600.0000              TOTAL IN =          10.0000

          OUT:                                     OUT:
          ----                                     ----
              STO-SS =           0.0000                STO-SS =           0.0000     STORAGE                          
                 WEL =           0.0000                   WEL =           0.0000     WEL-1                            
                 CHD =        3600.0000                   CHD =          10.0000     CHD-1                            

           TOTAL OUT =        3600.0000             TOTAL OUT =          10.0000

            IN - OUT =       3.0366E-07              IN - OUT =       4.0540E-10

 PERCENT DISCREPANCY =           0.00     PERCENT DISCREPANCY =           0.00




         TIME SUMMARY AT END OF TIME STEP   30 IN STRESS PERIOD   12
                    SECONDS     MINUTES      HOURS       DAYS        YEARS
                    -----------------------------------------------------------
   TIME STEP LENGTH  86400.      1440.0      24.000      1.0000     2.73785E-03
 STRESS PERIOD TIME 2.59200E+06  43200.      720.00      30.000     8.21355E-02
         TOTAL TIME 3.11040E+07 5.18400E+05  8640.0      360.00     0.98563    


end timestep

