                                   MODFLOW 6
                U.S. GEOLOGICAL SURVEY MODULAR HYDROLOGIC MODEL
                             TRANSPORT MODEL (GWT)
                            VERSION 6.6.3 09/29/2025

   MODFLOW 6 compiled Sep 29 2025 08:23:57 with Intel(R) Fortran Intel(R) 64
   Compiler Classic for applications running on Intel(R) 64, Version 2021.7.0
                             Build 20220726_000000

This software has been approved for release by the U.S. Geological 
Survey (USGS). Although the software has been subjected to rigorous 
review, the USGS reserves the right to update the software as needed 
pursuant to further analysis and review. No warranty, expressed or 
implied, is made by the USGS or the U.S. Government as to the 
functionality of the software and related material nor shall the 
fact of release constitute any such warranty. Furthermore, the 
software is released on condition that neither the USGS nor the U.S. 
Government shall be held liable for any damages resulting from its 
authorized or unauthorized use. Also refer to the USGS Water 
Resources Software User Rights Notice for complete use, copyright, 
and distribution information.


As a work of the United States Government, this USGS product is 
in the public domain within the United States. You can copy, 
modify, distribute, and perform the work, even for commercial 
purposes, all without asking permission. Additionally, USGS 
waives copyright and related rights in the work worldwide 
through CC0 1.0 Universal Public Domain Dedication 
(https://creativecommons.org/publicdomain/zero/1.0/).

The following GNU Lesser General Public License (LGPL) libraries
are used in this USGS product:

    SPARSKIT version 2.0
      ilut, luson, and qsplit 
      (https://www-users.cse.umn.edu/~saad/software/SPARSKIT/)

    RCM - Reverse Cuthill McKee Ordering
      (https://people.math.sc.edu/Burkardt/f_src/rcm/rcm.html)

    BLAS - Basic Linear Algebra Subprograms Level 1
      (https://people.math.sc.edu/Burkardt/f_src/blas1_d/blas1_d.html)

    SPARSEKIT - Sparse Matrix Utility Package
      amux, dperm, dvperm, rperm, and cperm
      (https://people.sc.fsu.edu/~jburkardt/f77_src/sparsekit/sparsekit.html)

The following BSD-3 License libraries are used in this USGS product:

    Modern Fortran DAG Library
      Copyright (c) 2018, Jacob Williams
      All rights reserved.
      (https://github.com/jacobwilliams/daglib)

MODFLOW 6 compiler options: /Isrc\libmf6_external.a.p /Isrc\libmf6core.a.p
/Isrc /I..\src /MT /nologo /warn:general /warn:truncated_source /stand:f18
/O2 /fpe:0 /heap-arrays:0 /traceback /fpp /Qdiag-disable:7416
/Qdiag-disable:7025 /Qdiag-disable:5268 /Qdiag-disable:10448
/Fdsrc\libmf6core.a.p\Utilities_compilerversion.F90.pdb
/module:src\libmf6core.a.p
/Fosrc/libmf6core.a.p/Utilities_compilerversion.F90.obj /c

System command used to initiate simulation:
D:\tools\bin\mf6.exe

MODFLOW was compiled using uniform precision.

Real Variables
  KIND: 8
  TINY (smallest non-zero value):    2.225074-308
  HUGE (largest value):    1.797693+308
  PRECISION: 15
  SIZE IN BITS: 64

Integer Variables
  KIND: 4
  HUGE (largest value): 2147483647
  SIZE IN BITS: 32

Long Integer Variables
  KIND: 8
  HUGE (largest value): 9223372036854775807
  SIZE IN BITS: 64

Logical Variables
  KIND: 4
  SIZE IN BITS: 32
 
 NAMEFILE OPTIONS:
    FLOWS WILL BE SAVED TO BUDGET FILE SPECIFIED IN OUTPUT CONTROL
 END NAMEFILE OPTIONS:

 DIS -- STRUCTURED GRID DISCRETIZATION PACKAGE, VERSION 2 : 3/27/2014 - INPUT READ FROM MEMPATH: __INPUT__/GWT/DIS                                 

 Setting Discretization Options
    Model length unit [0=UND, 1=FEET, 2=METERS, 3=CENTIMETERS] set as 2
 End Setting Discretization Options

 Setting Discretization Dimensions
    NLAY = 1
    NROW = 10
    NCOL = 10
 End Setting Discretization Dimensions

 Setting Discretization Griddata
    DELR set from input file
    DELC set from input file
    TOP set from input file
    BOTM set from input file
    IDOMAIN set from input file
 End Setting Discretization Griddata


 FMI -- FLOW MODEL INTERFACE,' VERSION 2, 8/17/2023
  FLOWS PROVIDED BY A GWF MODEL IN THIS SIMULATION

 ADV -- ADVECTION PACKAGE, VERSION 1, 8/25/2017 INPUT READ FROM MEMPATH: __INPUT__/GWT/ADV                                 


 PROCESSING ADVECTION OPTIONS
    ADVECTION WEIGHTING SCHEME HAS BEEN SET TO: UPSTREAM
 END OF ADVECTION OPTIONS

 CNC -- CNC PACKAGE, VERSION 8, 2/22/2014 INPUT READ FROM MEMPATH: __INPUT__/GWT/CNC-1                               

 PROCESSING CNC BASE OPTIONS
 END OF CNC BASE OPTIONS

 PROCESSING CNC BASE DIMENSIONS
    MAXBOUND =       2
 END OF CNC BASE DIMENSIONS
    STRT set from input file

 MST -- MOBILE STORAGE AND TRANSFER PACKAGE, VERSION 1, 7/29/2020 INPUT READ FROM MEMPATH: __INPUT__/GWT/MST                                 


 PROCESSING MOBILE STORAGE AND TRANSFER OPTIONS
 END OF MOBILE STORAGE AND TRANSFER OPTIONS
 PROCESSING GRIDDATA
    MOBILE DOMAIN POROSITY set from input file
 END PROCESSING GRIDDATA

 SSM -- SOURCE-SINK MIXING PACKAGE, VERSION 1, 8/25/2017 INPUT READ FROM MEMPATH: __INPUT__/GWT/SSM                                 


 PROCESSING SSM OPTIONS
 END OF SSM OPTIONS

 PROCESSING SSM SOURCES
    AUX SOURCE DETECTED.
    USING AUX COLUMN 1 IN PACKAGE AUX
 END PROCESSING SSM SOURCES

 OPTIONAL SSM FILEINPUT BLOCK INPUT NOT FOUND.
      THE LAST TIME STEP WILL BE PRINTED
      THE LAST TIME STEP WILL BE PRINTED
 # File generated by Flopy version 3.9.5 on 04/16/2026 at 16:34:01.

 PROCESSING OC OPTIONS

    BUDGET INFORMATION WILL BE WRITTEN TO:
      UNIT NUMBER: 1029
      FILE NAME: gwt.cbc

 OPENED gwt.cbc
 FILE TYPE:DATA(BINARY)   UNIT 1029   STATUS:REPLACE             
 FORMAT:UNFORMATTED            ACCESS:STREAM              
 ACTION:READWRITE           

    CONCENTRATION INFORMATION WILL BE WRITTEN TO:
      UNIT NUMBER: 1030
      FILE NAME: gwt.ucn

 OPENED gwt.ucn
 FILE TYPE:DATA(BINARY)   UNIT 1030   STATUS:REPLACE             
 FORMAT:UNFORMATTED            ACCESS:STREAM              
 ACTION:READWRITE           

 END OF OC OPTIONS

start timestep kper="1" kstp="1" mode="normal"


 BEGIN READING OUTPUT CONTROL FOR STRESS PERIOD 1
      ALL TIME STEPS WILL BE SAVED
      ALL TIME STEPS WILL BE SAVED
      THE LAST TIME STEP WILL BE PRINTED
      THE LAST TIME STEP WILL BE PRINTED

 END READING OUTPUT CONTROL FOR STRESS PERIOD 1
 UBDSV1 SAVING  STORAGE-AQUEOUS ON UNIT   1029 AT TIME STEP      1, STRESS PERIOD      1
 UBDSV1 SAVING     FLOW-JA-FACE ON UNIT   1029 AT TIME STEP      1, STRESS PERIOD      1
 UBDSV06 SAVING  SOURCE-SINK MIX IN MODEL GWT              PACKAGE GWT             CONNECTED TO MODEL GWT              PACKAGE SSM              ON UNIT   1029 AT TIME STEP      1, STRESS PERIOD      1
 UBDSV06 SAVING              CNC IN MODEL GWT              PACKAGE GWT             CONNECTED TO MODEL GWT              PACKAGE CNC-1            ON UNIT   1029 AT TIME STEP      1, STRESS PERIOD      1

 CONCENTRATION WILL BE SAVED ON UNIT 1030 AT END OF TIME STEP    1, STRESS PERIOD    1

end timestep


start timestep kper="1" kstp="2" mode="normal"

 UBDSV1 SAVING  STORAGE-AQUEOUS ON UNIT   1029 AT TIME STEP      2, STRESS PERIOD      1
 UBDSV1 SAVING     FLOW-JA-FACE ON UNIT   1029 AT TIME STEP      2, STRESS PERIOD      1
 UBDSV06 SAVING  SOURCE-SINK MIX IN MODEL GWT              PACKAGE GWT             CONNECTED TO MODEL GWT              PACKAGE SSM              ON UNIT   1029 AT TIME STEP      2, STRESS PERIOD      1
 UBDSV06 SAVING              CNC IN MODEL GWT              PACKAGE GWT             CONNECTED TO MODEL GWT              PACKAGE CNC-1            ON UNIT   1029 AT TIME STEP      2, STRESS PERIOD      1

 CONCENTRATION WILL BE SAVED ON UNIT 1030 AT END OF TIME STEP    2, STRESS PERIOD    1

end timestep


start timestep kper="1" kstp="3" mode="normal"

 UBDSV1 SAVING  STORAGE-AQUEOUS ON UNIT   1029 AT TIME STEP      3, STRESS PERIOD      1
 UBDSV1 SAVING     FLOW-JA-FACE ON UNIT   1029 AT TIME STEP      3, STRESS PERIOD      1
 UBDSV06 SAVING  SOURCE-SINK MIX IN MODEL GWT              PACKAGE GWT             CONNECTED TO MODEL GWT              PACKAGE SSM              ON UNIT   1029 AT TIME STEP      3, STRESS PERIOD      1
 UBDSV06 SAVING              CNC IN MODEL GWT              PACKAGE GWT             CONNECTED TO MODEL GWT              PACKAGE CNC-1            ON UNIT   1029 AT TIME STEP      3, STRESS PERIOD      1

 CONCENTRATION WILL BE SAVED ON UNIT 1030 AT END OF TIME STEP    3, STRESS PERIOD    1

end timestep


start timestep kper="1" kstp="4" mode="normal"

 UBDSV1 SAVING  STORAGE-AQUEOUS ON UNIT   1029 AT TIME STEP      4, STRESS PERIOD      1
 UBDSV1 SAVING     FLOW-JA-FACE ON UNIT   1029 AT TIME STEP      4, STRESS PERIOD      1
 UBDSV06 SAVING  SOURCE-SINK MIX IN MODEL GWT              PACKAGE GWT             CONNECTED TO MODEL GWT              PACKAGE SSM              ON UNIT   1029 AT TIME STEP      4, STRESS PERIOD      1
 UBDSV06 SAVING              CNC IN MODEL GWT              PACKAGE GWT             CONNECTED TO MODEL GWT              PACKAGE CNC-1            ON UNIT   1029 AT TIME STEP      4, STRESS PERIOD      1

 CONCENTRATION WILL BE SAVED ON UNIT 1030 AT END OF TIME STEP    4, STRESS PERIOD    1

end timestep


start timestep kper="1" kstp="5" mode="normal"

 UBDSV1 SAVING  STORAGE-AQUEOUS ON UNIT   1029 AT TIME STEP      5, STRESS PERIOD      1
 UBDSV1 SAVING     FLOW-JA-FACE ON UNIT   1029 AT TIME STEP      5, STRESS PERIOD      1
 UBDSV06 SAVING  SOURCE-SINK MIX IN MODEL GWT              PACKAGE GWT             CONNECTED TO MODEL GWT              PACKAGE SSM              ON UNIT   1029 AT TIME STEP      5, STRESS PERIOD      1
 UBDSV06 SAVING              CNC IN MODEL GWT              PACKAGE GWT             CONNECTED TO MODEL GWT              PACKAGE CNC-1            ON UNIT   1029 AT TIME STEP      5, STRESS PERIOD      1

 CONCENTRATION WILL BE SAVED ON UNIT 1030 AT END OF TIME STEP    5, STRESS PERIOD    1

end timestep


start timestep kper="1" kstp="6" mode="normal"

 UBDSV1 SAVING  STORAGE-AQUEOUS ON UNIT   1029 AT TIME STEP      6, STRESS PERIOD      1
 UBDSV1 SAVING     FLOW-JA-FACE ON UNIT   1029 AT TIME STEP      6, STRESS PERIOD      1
 UBDSV06 SAVING  SOURCE-SINK MIX IN MODEL GWT              PACKAGE GWT             CONNECTED TO MODEL GWT              PACKAGE SSM              ON UNIT   1029 AT TIME STEP      6, STRESS PERIOD      1
 UBDSV06 SAVING              CNC IN MODEL GWT              PACKAGE GWT             CONNECTED TO MODEL GWT              PACKAGE CNC-1            ON UNIT   1029 AT TIME STEP      6, STRESS PERIOD      1

 CONCENTRATION WILL BE SAVED ON UNIT 1030 AT END OF TIME STEP    6, STRESS PERIOD    1

end timestep


start timestep kper="1" kstp="7" mode="normal"

 UBDSV1 SAVING  STORAGE-AQUEOUS ON UNIT   1029 AT TIME STEP      7, STRESS PERIOD      1
 UBDSV1 SAVING     FLOW-JA-FACE ON UNIT   1029 AT TIME STEP      7, STRESS PERIOD      1
 UBDSV06 SAVING  SOURCE-SINK MIX IN MODEL GWT              PACKAGE GWT             CONNECTED TO MODEL GWT              PACKAGE SSM              ON UNIT   1029 AT TIME STEP      7, STRESS PERIOD      1
 UBDSV06 SAVING              CNC IN MODEL GWT              PACKAGE GWT             CONNECTED TO MODEL GWT              PACKAGE CNC-1            ON UNIT   1029 AT TIME STEP      7, STRESS PERIOD      1

 CONCENTRATION WILL BE SAVED ON UNIT 1030 AT END OF TIME STEP    7, STRESS PERIOD    1

end timestep


start timestep kper="1" kstp="8" mode="normal"

 UBDSV1 SAVING  STORAGE-AQUEOUS ON UNIT   1029 AT TIME STEP      8, STRESS PERIOD      1
 UBDSV1 SAVING     FLOW-JA-FACE ON UNIT   1029 AT TIME STEP      8, STRESS PERIOD      1
 UBDSV06 SAVING  SOURCE-SINK MIX IN MODEL GWT              PACKAGE GWT             CONNECTED TO MODEL GWT              PACKAGE SSM              ON UNIT   1029 AT TIME STEP      8, STRESS PERIOD      1
 UBDSV06 SAVING              CNC IN MODEL GWT              PACKAGE GWT             CONNECTED TO MODEL GWT              PACKAGE CNC-1            ON UNIT   1029 AT TIME STEP      8, STRESS PERIOD      1

 CONCENTRATION WILL BE SAVED ON UNIT 1030 AT END OF TIME STEP    8, STRESS PERIOD    1

end timestep


start timestep kper="1" kstp="9" mode="normal"

 UBDSV1 SAVING  STORAGE-AQUEOUS ON UNIT   1029 AT TIME STEP      9, STRESS PERIOD      1
 UBDSV1 SAVING     FLOW-JA-FACE ON UNIT   1029 AT TIME STEP      9, STRESS PERIOD      1
 UBDSV06 SAVING  SOURCE-SINK MIX IN MODEL GWT              PACKAGE GWT             CONNECTED TO MODEL GWT              PACKAGE SSM              ON UNIT   1029 AT TIME STEP      9, STRESS PERIOD      1
 UBDSV06 SAVING              CNC IN MODEL GWT              PACKAGE GWT             CONNECTED TO MODEL GWT              PACKAGE CNC-1            ON UNIT   1029 AT TIME STEP      9, STRESS PERIOD      1

 CONCENTRATION WILL BE SAVED ON UNIT 1030 AT END OF TIME STEP    9, STRESS PERIOD    1

end timestep


start timestep kper="1" kstp="10" mode="normal"

 UBDSV1 SAVING  STORAGE-AQUEOUS ON UNIT   1029 AT TIME STEP     10, STRESS PERIOD      1
 UBDSV1 SAVING     FLOW-JA-FACE ON UNIT   1029 AT TIME STEP     10, STRESS PERIOD      1
 UBDSV06 SAVING  SOURCE-SINK MIX IN MODEL GWT              PACKAGE GWT             CONNECTED TO MODEL GWT              PACKAGE SSM              ON UNIT   1029 AT TIME STEP     10, STRESS PERIOD      1
 UBDSV06 SAVING              CNC IN MODEL GWT              PACKAGE GWT             CONNECTED TO MODEL GWT              PACKAGE CNC-1            ON UNIT   1029 AT TIME STEP     10, STRESS PERIOD      1

 CONCENTRATION WILL BE SAVED ON UNIT 1030 AT END OF TIME STEP   10, STRESS PERIOD    1

end timestep


start timestep kper="1" kstp="11" mode="normal"

 UBDSV1 SAVING  STORAGE-AQUEOUS ON UNIT   1029 AT TIME STEP     11, STRESS PERIOD      1
 UBDSV1 SAVING     FLOW-JA-FACE ON UNIT   1029 AT TIME STEP     11, STRESS PERIOD      1
 UBDSV06 SAVING  SOURCE-SINK MIX IN MODEL GWT              PACKAGE GWT             CONNECTED TO MODEL GWT              PACKAGE SSM              ON UNIT   1029 AT TIME STEP     11, STRESS PERIOD      1
 UBDSV06 SAVING              CNC IN MODEL GWT              PACKAGE GWT             CONNECTED TO MODEL GWT              PACKAGE CNC-1            ON UNIT   1029 AT TIME STEP     11, STRESS PERIOD      1

 CONCENTRATION WILL BE SAVED ON UNIT 1030 AT END OF TIME STEP   11, STRESS PERIOD    1

end timestep


start timestep kper="1" kstp="12" mode="normal"

 UBDSV1 SAVING  STORAGE-AQUEOUS ON UNIT   1029 AT TIME STEP     12, STRESS PERIOD      1
 UBDSV1 SAVING     FLOW-JA-FACE ON UNIT   1029 AT TIME STEP     12, STRESS PERIOD      1
 UBDSV06 SAVING  SOURCE-SINK MIX IN MODEL GWT              PACKAGE GWT             CONNECTED TO MODEL GWT              PACKAGE SSM              ON UNIT   1029 AT TIME STEP     12, STRESS PERIOD      1
 UBDSV06 SAVING              CNC IN MODEL GWT              PACKAGE GWT             CONNECTED TO MODEL GWT              PACKAGE CNC-1            ON UNIT   1029 AT TIME STEP     12, STRESS PERIOD      1

 CONCENTRATION WILL BE SAVED ON UNIT 1030 AT END OF TIME STEP   12, STRESS PERIOD    1

end timestep


start timestep kper="1" kstp="13" mode="normal"

 UBDSV1 SAVING  STORAGE-AQUEOUS ON UNIT   1029 AT TIME STEP     13, STRESS PERIOD      1
 UBDSV1 SAVING     FLOW-JA-FACE ON UNIT   1029 AT TIME STEP     13, STRESS PERIOD      1
 UBDSV06 SAVING  SOURCE-SINK MIX IN MODEL GWT              PACKAGE GWT             CONNECTED TO MODEL GWT              PACKAGE SSM              ON UNIT   1029 AT TIME STEP     13, STRESS PERIOD      1
 UBDSV06 SAVING              CNC IN MODEL GWT              PACKAGE GWT             CONNECTED TO MODEL GWT              PACKAGE CNC-1            ON UNIT   1029 AT TIME STEP     13, STRESS PERIOD      1

 CONCENTRATION WILL BE SAVED ON UNIT 1030 AT END OF TIME STEP   13, STRESS PERIOD    1

end timestep


start timestep kper="1" kstp="14" mode="normal"

 UBDSV1 SAVING  STORAGE-AQUEOUS ON UNIT   1029 AT TIME STEP     14, STRESS PERIOD      1
 UBDSV1 SAVING     FLOW-JA-FACE ON UNIT   1029 AT TIME STEP     14, STRESS PERIOD      1
 UBDSV06 SAVING  SOURCE-SINK MIX IN MODEL GWT              PACKAGE GWT             CONNECTED TO MODEL GWT              PACKAGE SSM              ON UNIT   1029 AT TIME STEP     14, STRESS PERIOD      1
 UBDSV06 SAVING              CNC IN MODEL GWT              PACKAGE GWT             CONNECTED TO MODEL GWT              PACKAGE CNC-1            ON UNIT   1029 AT TIME STEP     14, STRESS PERIOD      1

 CONCENTRATION WILL BE SAVED ON UNIT 1030 AT END OF TIME STEP   14, STRESS PERIOD    1

end timestep


start timestep kper="1" kstp="15" mode="normal"

 UBDSV1 SAVING  STORAGE-AQUEOUS ON UNIT   1029 AT TIME STEP     15, STRESS PERIOD      1
 UBDSV1 SAVING     FLOW-JA-FACE ON UNIT   1029 AT TIME STEP     15, STRESS PERIOD      1
 UBDSV06 SAVING  SOURCE-SINK MIX IN MODEL GWT              PACKAGE GWT             CONNECTED TO MODEL GWT              PACKAGE SSM              ON UNIT   1029 AT TIME STEP     15, STRESS PERIOD      1
 UBDSV06 SAVING              CNC IN MODEL GWT              PACKAGE GWT             CONNECTED TO MODEL GWT              PACKAGE CNC-1            ON UNIT   1029 AT TIME STEP     15, STRESS PERIOD      1

 CONCENTRATION WILL BE SAVED ON UNIT 1030 AT END OF TIME STEP   15, STRESS PERIOD    1

end timestep


start timestep kper="1" kstp="16" mode="normal"

 UBDSV1 SAVING  STORAGE-AQUEOUS ON UNIT   1029 AT TIME STEP     16, STRESS PERIOD      1
 UBDSV1 SAVING     FLOW-JA-FACE ON UNIT   1029 AT TIME STEP     16, STRESS PERIOD      1
 UBDSV06 SAVING  SOURCE-SINK MIX IN MODEL GWT              PACKAGE GWT             CONNECTED TO MODEL GWT              PACKAGE SSM              ON UNIT   1029 AT TIME STEP     16, STRESS PERIOD      1
 UBDSV06 SAVING              CNC IN MODEL GWT              PACKAGE GWT             CONNECTED TO MODEL GWT              PACKAGE CNC-1            ON UNIT   1029 AT TIME STEP     16, STRESS PERIOD      1

 CONCENTRATION WILL BE SAVED ON UNIT 1030 AT END OF TIME STEP   16, STRESS PERIOD    1

end timestep


start timestep kper="1" kstp="17" mode="normal"

 UBDSV1 SAVING  STORAGE-AQUEOUS ON UNIT   1029 AT TIME STEP     17, STRESS PERIOD      1
 UBDSV1 SAVING     FLOW-JA-FACE ON UNIT   1029 AT TIME STEP     17, STRESS PERIOD      1
 UBDSV06 SAVING  SOURCE-SINK MIX IN MODEL GWT              PACKAGE GWT             CONNECTED TO MODEL GWT              PACKAGE SSM              ON UNIT   1029 AT TIME STEP     17, STRESS PERIOD      1
 UBDSV06 SAVING              CNC IN MODEL GWT              PACKAGE GWT             CONNECTED TO MODEL GWT              PACKAGE CNC-1            ON UNIT   1029 AT TIME STEP     17, STRESS PERIOD      1

 CONCENTRATION WILL BE SAVED ON UNIT 1030 AT END OF TIME STEP   17, STRESS PERIOD    1

end timestep


start timestep kper="1" kstp="18" mode="normal"

 UBDSV1 SAVING  STORAGE-AQUEOUS ON UNIT   1029 AT TIME STEP     18, STRESS PERIOD      1
 UBDSV1 SAVING     FLOW-JA-FACE ON UNIT   1029 AT TIME STEP     18, STRESS PERIOD      1
 UBDSV06 SAVING  SOURCE-SINK MIX IN MODEL GWT              PACKAGE GWT             CONNECTED TO MODEL GWT              PACKAGE SSM              ON UNIT   1029 AT TIME STEP     18, STRESS PERIOD      1
 UBDSV06 SAVING              CNC IN MODEL GWT              PACKAGE GWT             CONNECTED TO MODEL GWT              PACKAGE CNC-1            ON UNIT   1029 AT TIME STEP     18, STRESS PERIOD      1

 CONCENTRATION WILL BE SAVED ON UNIT 1030 AT END OF TIME STEP   18, STRESS PERIOD    1

end timestep


start timestep kper="1" kstp="19" mode="normal"

 UBDSV1 SAVING  STORAGE-AQUEOUS ON UNIT   1029 AT TIME STEP     19, STRESS PERIOD      1
 UBDSV1 SAVING     FLOW-JA-FACE ON UNIT   1029 AT TIME STEP     19, STRESS PERIOD      1
 UBDSV06 SAVING  SOURCE-SINK MIX IN MODEL GWT              PACKAGE GWT             CONNECTED TO MODEL GWT              PACKAGE SSM              ON UNIT   1029 AT TIME STEP     19, STRESS PERIOD      1
 UBDSV06 SAVING              CNC IN MODEL GWT              PACKAGE GWT             CONNECTED TO MODEL GWT              PACKAGE CNC-1            ON UNIT   1029 AT TIME STEP     19, STRESS PERIOD      1

 CONCENTRATION WILL BE SAVED ON UNIT 1030 AT END OF TIME STEP   19, STRESS PERIOD    1

end timestep


start timestep kper="1" kstp="20" mode="normal"

 UBDSV1 SAVING  STORAGE-AQUEOUS ON UNIT   1029 AT TIME STEP     20, STRESS PERIOD      1
 UBDSV1 SAVING     FLOW-JA-FACE ON UNIT   1029 AT TIME STEP     20, STRESS PERIOD      1
 UBDSV06 SAVING  SOURCE-SINK MIX IN MODEL GWT              PACKAGE GWT             CONNECTED TO MODEL GWT              PACKAGE SSM              ON UNIT   1029 AT TIME STEP     20, STRESS PERIOD      1
 UBDSV06 SAVING              CNC IN MODEL GWT              PACKAGE GWT             CONNECTED TO MODEL GWT              PACKAGE CNC-1            ON UNIT   1029 AT TIME STEP     20, STRESS PERIOD      1

 CONCENTRATION WILL BE SAVED ON UNIT 1030 AT END OF TIME STEP   20, STRESS PERIOD    1

end timestep


start timestep kper="1" kstp="21" mode="normal"

 UBDSV1 SAVING  STORAGE-AQUEOUS ON UNIT   1029 AT TIME STEP     21, STRESS PERIOD      1
 UBDSV1 SAVING     FLOW-JA-FACE ON UNIT   1029 AT TIME STEP     21, STRESS PERIOD      1
 UBDSV06 SAVING  SOURCE-SINK MIX IN MODEL GWT              PACKAGE GWT             CONNECTED TO MODEL GWT              PACKAGE SSM              ON UNIT   1029 AT TIME STEP     21, STRESS PERIOD      1
 UBDSV06 SAVING              CNC IN MODEL GWT              PACKAGE GWT             CONNECTED TO MODEL GWT              PACKAGE CNC-1            ON UNIT   1029 AT TIME STEP     21, STRESS PERIOD      1

 CONCENTRATION WILL BE SAVED ON UNIT 1030 AT END OF TIME STEP   21, STRESS PERIOD    1

end timestep


start timestep kper="1" kstp="22" mode="normal"

 UBDSV1 SAVING  STORAGE-AQUEOUS ON UNIT   1029 AT TIME STEP     22, STRESS PERIOD      1
 UBDSV1 SAVING     FLOW-JA-FACE ON UNIT   1029 AT TIME STEP     22, STRESS PERIOD      1
 UBDSV06 SAVING  SOURCE-SINK MIX IN MODEL GWT              PACKAGE GWT             CONNECTED TO MODEL GWT              PACKAGE SSM              ON UNIT   1029 AT TIME STEP     22, STRESS PERIOD      1
 UBDSV06 SAVING              CNC IN MODEL GWT              PACKAGE GWT             CONNECTED TO MODEL GWT              PACKAGE CNC-1            ON UNIT   1029 AT TIME STEP     22, STRESS PERIOD      1

 CONCENTRATION WILL BE SAVED ON UNIT 1030 AT END OF TIME STEP   22, STRESS PERIOD    1

end timestep


start timestep kper="1" kstp="23" mode="normal"

 UBDSV1 SAVING  STORAGE-AQUEOUS ON UNIT   1029 AT TIME STEP     23, STRESS PERIOD      1
 UBDSV1 SAVING     FLOW-JA-FACE ON UNIT   1029 AT TIME STEP     23, STRESS PERIOD      1
 UBDSV06 SAVING  SOURCE-SINK MIX IN MODEL GWT              PACKAGE GWT             CONNECTED TO MODEL GWT              PACKAGE SSM              ON UNIT   1029 AT TIME STEP     23, STRESS PERIOD      1
 UBDSV06 SAVING              CNC IN MODEL GWT              PACKAGE GWT             CONNECTED TO MODEL GWT              PACKAGE CNC-1            ON UNIT   1029 AT TIME STEP     23, STRESS PERIOD      1

 CONCENTRATION WILL BE SAVED ON UNIT 1030 AT END OF TIME STEP   23, STRESS PERIOD    1

end timestep


start timestep kper="1" kstp="24" mode="normal"

 UBDSV1 SAVING  STORAGE-AQUEOUS ON UNIT   1029 AT TIME STEP     24, STRESS PERIOD      1
 UBDSV1 SAVING     FLOW-JA-FACE ON UNIT   1029 AT TIME STEP     24, STRESS PERIOD      1
 UBDSV06 SAVING  SOURCE-SINK MIX IN MODEL GWT              PACKAGE GWT             CONNECTED TO MODEL GWT              PACKAGE SSM              ON UNIT   1029 AT TIME STEP     24, STRESS PERIOD      1
 UBDSV06 SAVING              CNC IN MODEL GWT              PACKAGE GWT             CONNECTED TO MODEL GWT              PACKAGE CNC-1            ON UNIT   1029 AT TIME STEP     24, STRESS PERIOD      1

 CONCENTRATION WILL BE SAVED ON UNIT 1030 AT END OF TIME STEP   24, STRESS PERIOD    1

end timestep


start timestep kper="1" kstp="25" mode="normal"

 UBDSV1 SAVING  STORAGE-AQUEOUS ON UNIT   1029 AT TIME STEP     25, STRESS PERIOD      1
 UBDSV1 SAVING     FLOW-JA-FACE ON UNIT   1029 AT TIME STEP     25, STRESS PERIOD      1
 UBDSV06 SAVING  SOURCE-SINK MIX IN MODEL GWT              PACKAGE GWT             CONNECTED TO MODEL GWT              PACKAGE SSM              ON UNIT   1029 AT TIME STEP     25, STRESS PERIOD      1
 UBDSV06 SAVING              CNC IN MODEL GWT              PACKAGE GWT             CONNECTED TO MODEL GWT              PACKAGE CNC-1            ON UNIT   1029 AT TIME STEP     25, STRESS PERIOD      1

 CONCENTRATION WILL BE SAVED ON UNIT 1030 AT END OF TIME STEP   25, STRESS PERIOD    1

end timestep


start timestep kper="1" kstp="26" mode="normal"

 UBDSV1 SAVING  STORAGE-AQUEOUS ON UNIT   1029 AT TIME STEP     26, STRESS PERIOD      1
 UBDSV1 SAVING     FLOW-JA-FACE ON UNIT   1029 AT TIME STEP     26, STRESS PERIOD      1
 UBDSV06 SAVING  SOURCE-SINK MIX IN MODEL GWT              PACKAGE GWT             CONNECTED TO MODEL GWT              PACKAGE SSM              ON UNIT   1029 AT TIME STEP     26, STRESS PERIOD      1
 UBDSV06 SAVING              CNC IN MODEL GWT              PACKAGE GWT             CONNECTED TO MODEL GWT              PACKAGE CNC-1            ON UNIT   1029 AT TIME STEP     26, STRESS PERIOD      1

 CONCENTRATION WILL BE SAVED ON UNIT 1030 AT END OF TIME STEP   26, STRESS PERIOD    1

end timestep


start timestep kper="1" kstp="27" mode="normal"

 UBDSV1 SAVING  STORAGE-AQUEOUS ON UNIT   1029 AT TIME STEP     27, STRESS PERIOD      1
 UBDSV1 SAVING     FLOW-JA-FACE ON UNIT   1029 AT TIME STEP     27, STRESS PERIOD      1
 UBDSV06 SAVING  SOURCE-SINK MIX IN MODEL GWT              PACKAGE GWT             CONNECTED TO MODEL GWT              PACKAGE SSM              ON UNIT   1029 AT TIME STEP     27, STRESS PERIOD      1
 UBDSV06 SAVING              CNC IN MODEL GWT              PACKAGE GWT             CONNECTED TO MODEL GWT              PACKAGE CNC-1            ON UNIT   1029 AT TIME STEP     27, STRESS PERIOD      1

 CONCENTRATION WILL BE SAVED ON UNIT 1030 AT END OF TIME STEP   27, STRESS PERIOD    1

end timestep


start timestep kper="1" kstp="28" mode="normal"

 UBDSV1 SAVING  STORAGE-AQUEOUS ON UNIT   1029 AT TIME STEP     28, STRESS PERIOD      1
 UBDSV1 SAVING     FLOW-JA-FACE ON UNIT   1029 AT TIME STEP     28, STRESS PERIOD      1
 UBDSV06 SAVING  SOURCE-SINK MIX IN MODEL GWT              PACKAGE GWT             CONNECTED TO MODEL GWT              PACKAGE SSM              ON UNIT   1029 AT TIME STEP     28, STRESS PERIOD      1
 UBDSV06 SAVING              CNC IN MODEL GWT              PACKAGE GWT             CONNECTED TO MODEL GWT              PACKAGE CNC-1            ON UNIT   1029 AT TIME STEP     28, STRESS PERIOD      1

 CONCENTRATION WILL BE SAVED ON UNIT 1030 AT END OF TIME STEP   28, STRESS PERIOD    1

end timestep


start timestep kper="1" kstp="29" mode="normal"

 UBDSV1 SAVING  STORAGE-AQUEOUS ON UNIT   1029 AT TIME STEP     29, STRESS PERIOD      1
 UBDSV1 SAVING     FLOW-JA-FACE ON UNIT   1029 AT TIME STEP     29, STRESS PERIOD      1
 UBDSV06 SAVING  SOURCE-SINK MIX IN MODEL GWT              PACKAGE GWT             CONNECTED TO MODEL GWT              PACKAGE SSM              ON UNIT   1029 AT TIME STEP     29, STRESS PERIOD      1
 UBDSV06 SAVING              CNC IN MODEL GWT              PACKAGE GWT             CONNECTED TO MODEL GWT              PACKAGE CNC-1            ON UNIT   1029 AT TIME STEP     29, STRESS PERIOD      1

 CONCENTRATION WILL BE SAVED ON UNIT 1030 AT END OF TIME STEP   29, STRESS PERIOD    1

end timestep


start timestep kper="1" kstp="30" mode="normal"

 UBDSV1 SAVING  STORAGE-AQUEOUS ON UNIT   1029 AT TIME STEP     30, STRESS PERIOD      1
 UBDSV1 SAVING     FLOW-JA-FACE ON UNIT   1029 AT TIME STEP     30, STRESS PERIOD      1
 UBDSV06 SAVING  SOURCE-SINK MIX IN MODEL GWT              PACKAGE GWT             CONNECTED TO MODEL GWT              PACKAGE SSM              ON UNIT   1029 AT TIME STEP     30, STRESS PERIOD      1
 UBDSV06 SAVING              CNC IN MODEL GWT              PACKAGE GWT             CONNECTED TO MODEL GWT              PACKAGE CNC-1            ON UNIT   1029 AT TIME STEP     30, STRESS PERIOD      1
1
  CONCENTRATION IN LAYER   1 AT END OF TIME STEP  30 IN STRESS PERIOD    1
  ---------------------------------------------------------------------------

                1               2               3               4               5               6               7               8               9              10
 ................................................................................................................................................................
   1     0.100000        0.100000        0.100000        0.100018        0.100000        0.100000        0.100000        0.100000        0.100000        0.100000    
   2     0.100000        0.100000        0.100015        0.108828        0.100039        0.100000        0.100000        0.100000        0.100000        0.100000    
   3     0.100000        0.100021        0.109011        0.997993        0.113326        0.100072        0.100000        0.100000        0.100000        0.100000    
   4     0.100000        0.100000        0.100040        0.113305        0.100118        0.100001        0.100000        0.100000        0.100000        0.100000    
   5     0.100000        0.100000        0.100000        0.100070        0.100001        0.100000        0.100000        0.100000        0.100000        0.100000    
   6     0.100000        0.100000        0.100000        0.100000        0.100000        0.100000        0.100000        0.100000        0.100000        0.100000    
   7     0.100000        0.100000        0.100000        0.100000        0.100000        0.100000        0.100000        0.100000        0.100000        0.100000    
   8     0.100000        0.100000        0.100000        0.100000        0.100000        0.100000        0.100000        0.100000        0.100000        0.100000    
   9     0.100000        0.100000        0.100000        0.100000        0.100000        0.100000        0.100000        0.100000        0.100000        0.100000    
  10     0.100000        0.100000        0.100000        0.100000        0.100000        0.100000        0.100000        0.100000        0.100000        0.100000    

 CONCENTRATION WILL BE SAVED ON UNIT 1030 AT END OF TIME STEP   30, STRESS PERIOD    1


  MASS BUDGET FOR ENTIRE MODEL AT END OF TIME STEP   30, STRESS PERIOD   1
  ---------------------------------------------------------------------------------------------------

     CUMULATIVE MASS      M       RATES FOR THIS TIME STEP      M/T          PACKAGE NAME    
     ------------------                 ------------------------                     ----------------

           IN:                                      IN:
           ---                                      ---
     STORAGE-AQUEOUS =       4.5122E-07       STORAGE-AQUEOUS =       3.7731E-09     MST                              
                 WEL =        3000.0000                   WEL =         100.0000     SSM_WEL-1                        
                 CHD =           0.0000                   CHD =           0.0000     SSM_CHD-1                        
                 CNC =           0.0000                   CNC =           0.0000     CNC-1                            

            TOTAL IN =        3000.0000              TOTAL IN =         100.0000

          OUT:                                     OUT:
          ----                                     ----
     STORAGE-AQUEOUS =        2970.0000       STORAGE-AQUEOUS =          99.0000     MST                              
                 WEL =           0.0000                   WEL =           0.0000     SSM_WEL-1                        
                 CHD =           0.0000                   CHD =           0.0000     SSM_CHD-1                        
                 CNC =          30.0000                   CNC =           1.0000     CNC-1                            

           TOTAL OUT =        3000.0000             TOTAL OUT =         100.0000

            IN - OUT =       2.6375E-11              IN - OUT =       4.2633E-13

 PERCENT DISCREPANCY =           0.00     PERCENT DISCREPANCY =           0.00




         TIME SUMMARY AT END OF TIME STEP   30 IN STRESS PERIOD    1
                    SECONDS     MINUTES      HOURS       DAYS        YEARS
                    -----------------------------------------------------------
   TIME STEP LENGTH  86400.      1440.0      24.000      1.0000     2.73785E-03
 STRESS PERIOD TIME 2.59200E+06  43200.      720.00      30.000     8.21355E-02
         TOTAL TIME 2.59200E+06  43200.      720.00      30.000     8.21355E-02


end timestep


start timestep kper="2" kstp="1" mode="normal"


 END OF FILE DETECTED IN OUTPUT CONTROL.
 CURRENT OUTPUT CONTROL SETTINGS WILL BE 
 REPEATED UNTIL THE END OF THE SIMULATION.

 OUTPUT CONTROL FOR STRESS PERIOD 2 IS REPEATED USING SETTINGS FROM A PREVIOUS STRESS PERIOD.
 UBDSV1 SAVING  STORAGE-AQUEOUS ON UNIT   1029 AT TIME STEP      1, STRESS PERIOD      2
 UBDSV1 SAVING     FLOW-JA-FACE ON UNIT   1029 AT TIME STEP      1, STRESS PERIOD      2
 UBDSV06 SAVING  SOURCE-SINK MIX IN MODEL GWT              PACKAGE GWT             CONNECTED TO MODEL GWT              PACKAGE SSM              ON UNIT   1029 AT TIME STEP      1, STRESS PERIOD      2
 UBDSV06 SAVING              CNC IN MODEL GWT              PACKAGE GWT             CONNECTED TO MODEL GWT              PACKAGE CNC-1            ON UNIT   1029 AT TIME STEP      1, STRESS PERIOD      2

 CONCENTRATION WILL BE SAVED ON UNIT 1030 AT END OF TIME STEP    1, STRESS PERIOD    2

end timestep


start timestep kper="2" kstp="2" mode="normal"

 UBDSV1 SAVING  STORAGE-AQUEOUS ON UNIT   1029 AT TIME STEP      2, STRESS PERIOD      2
 UBDSV1 SAVING     FLOW-JA-FACE ON UNIT   1029 AT TIME STEP      2, STRESS PERIOD      2
 UBDSV06 SAVING  SOURCE-SINK MIX IN MODEL GWT              PACKAGE GWT             CONNECTED TO MODEL GWT              PACKAGE SSM              ON UNIT   1029 AT TIME STEP      2, STRESS PERIOD      2
 UBDSV06 SAVING              CNC IN MODEL GWT              PACKAGE GWT             CONNECTED TO MODEL GWT              PACKAGE CNC-1            ON UNIT   1029 AT TIME STEP      2, STRESS PERIOD      2

 CONCENTRATION WILL BE SAVED ON UNIT 1030 AT END OF TIME STEP    2, STRESS PERIOD    2

end timestep


start timestep kper="2" kstp="3" mode="normal"

 UBDSV1 SAVING  STORAGE-AQUEOUS ON UNIT   1029 AT TIME STEP      3, STRESS PERIOD      2
 UBDSV1 SAVING     FLOW-JA-FACE ON UNIT   1029 AT TIME STEP      3, STRESS PERIOD      2
 UBDSV06 SAVING  SOURCE-SINK MIX IN MODEL GWT              PACKAGE GWT             CONNECTED TO MODEL GWT              PACKAGE SSM              ON UNIT   1029 AT TIME STEP      3, STRESS PERIOD      2
 UBDSV06 SAVING              CNC IN MODEL GWT              PACKAGE GWT             CONNECTED TO MODEL GWT              PACKAGE CNC-1            ON UNIT   1029 AT TIME STEP      3, STRESS PERIOD      2

 CONCENTRATION WILL BE SAVED ON UNIT 1030 AT END OF TIME STEP    3, STRESS PERIOD    2

end timestep


start timestep kper="2" kstp="4" mode="normal"

 UBDSV1 SAVING  STORAGE-AQUEOUS ON UNIT   1029 AT TIME STEP      4, STRESS PERIOD      2
 UBDSV1 SAVING     FLOW-JA-FACE ON UNIT   1029 AT TIME STEP      4, STRESS PERIOD      2
 UBDSV06 SAVING  SOURCE-SINK MIX IN MODEL GWT              PACKAGE GWT             CONNECTED TO MODEL GWT              PACKAGE SSM              ON UNIT   1029 AT TIME STEP      4, STRESS PERIOD      2
 UBDSV06 SAVING              CNC IN MODEL GWT              PACKAGE GWT             CONNECTED TO MODEL GWT              PACKAGE CNC-1            ON UNIT   1029 AT TIME STEP      4, STRESS PERIOD      2

 CONCENTRATION WILL BE SAVED ON UNIT 1030 AT END OF TIME STEP    4, STRESS PERIOD    2

end timestep


start timestep kper="2" kstp="5" mode="normal"

 UBDSV1 SAVING  STORAGE-AQUEOUS ON UNIT   1029 AT TIME STEP      5, STRESS PERIOD      2
 UBDSV1 SAVING     FLOW-JA-FACE ON UNIT   1029 AT TIME STEP      5, STRESS PERIOD      2
 UBDSV06 SAVING  SOURCE-SINK MIX IN MODEL GWT              PACKAGE GWT             CONNECTED TO MODEL GWT              PACKAGE SSM              ON UNIT   1029 AT TIME STEP      5, STRESS PERIOD      2
 UBDSV06 SAVING              CNC IN MODEL GWT              PACKAGE GWT             CONNECTED TO MODEL GWT              PACKAGE CNC-1            ON UNIT   1029 AT TIME STEP      5, STRESS PERIOD      2

 CONCENTRATION WILL BE SAVED ON UNIT 1030 AT END OF TIME STEP    5, STRESS PERIOD    2

end timestep


start timestep kper="2" kstp="6" mode="normal"

 UBDSV1 SAVING  STORAGE-AQUEOUS ON UNIT   1029 AT TIME STEP      6, STRESS PERIOD      2
 UBDSV1 SAVING     FLOW-JA-FACE ON UNIT   1029 AT TIME STEP      6, STRESS PERIOD      2
 UBDSV06 SAVING  SOURCE-SINK MIX IN MODEL GWT              PACKAGE GWT             CONNECTED TO MODEL GWT              PACKAGE SSM              ON UNIT   1029 AT TIME STEP      6, STRESS PERIOD      2
 UBDSV06 SAVING              CNC IN MODEL GWT              PACKAGE GWT             CONNECTED TO MODEL GWT              PACKAGE CNC-1            ON UNIT   1029 AT TIME STEP      6, STRESS PERIOD      2

 CONCENTRATION WILL BE SAVED ON UNIT 1030 AT END OF TIME STEP    6, STRESS PERIOD    2

end timestep


start timestep kper="2" kstp="7" mode="normal"

 UBDSV1 SAVING  STORAGE-AQUEOUS ON UNIT   1029 AT TIME STEP      7, STRESS PERIOD      2
 UBDSV1 SAVING     FLOW-JA-FACE ON UNIT   1029 AT TIME STEP      7, STRESS PERIOD      2
 UBDSV06 SAVING  SOURCE-SINK MIX IN MODEL GWT              PACKAGE GWT             CONNECTED TO MODEL GWT              PACKAGE SSM              ON UNIT   1029 AT TIME STEP      7, STRESS PERIOD      2
 UBDSV06 SAVING              CNC IN MODEL GWT              PACKAGE GWT             CONNECTED TO MODEL GWT              PACKAGE CNC-1            ON UNIT   1029 AT TIME STEP      7, STRESS PERIOD      2

 CONCENTRATION WILL BE SAVED ON UNIT 1030 AT END OF TIME STEP    7, STRESS PERIOD    2

end timestep


start timestep kper="2" kstp="8" mode="normal"

 UBDSV1 SAVING  STORAGE-AQUEOUS ON UNIT   1029 AT TIME STEP      8, STRESS PERIOD      2
 UBDSV1 SAVING     FLOW-JA-FACE ON UNIT   1029 AT TIME STEP      8, STRESS PERIOD      2
 UBDSV06 SAVING  SOURCE-SINK MIX IN MODEL GWT              PACKAGE GWT             CONNECTED TO MODEL GWT              PACKAGE SSM              ON UNIT   1029 AT TIME STEP      8, STRESS PERIOD      2
 UBDSV06 SAVING              CNC IN MODEL GWT              PACKAGE GWT             CONNECTED TO MODEL GWT              PACKAGE CNC-1            ON UNIT   1029 AT TIME STEP      8, STRESS PERIOD      2

 CONCENTRATION WILL BE SAVED ON UNIT 1030 AT END OF TIME STEP    8, STRESS PERIOD    2

end timestep


start timestep kper="2" kstp="9" mode="normal"

 UBDSV1 SAVING  STORAGE-AQUEOUS ON UNIT   1029 AT TIME STEP      9, STRESS PERIOD      2
 UBDSV1 SAVING     FLOW-JA-FACE ON UNIT   1029 AT TIME STEP      9, STRESS PERIOD      2
 UBDSV06 SAVING  SOURCE-SINK MIX IN MODEL GWT              PACKAGE GWT             CONNECTED TO MODEL GWT              PACKAGE SSM              ON UNIT   1029 AT TIME STEP      9, STRESS PERIOD      2
 UBDSV06 SAVING              CNC IN MODEL GWT              PACKAGE GWT             CONNECTED TO MODEL GWT              PACKAGE CNC-1            ON UNIT   1029 AT TIME STEP      9, STRESS PERIOD      2

 CONCENTRATION WILL BE SAVED ON UNIT 1030 AT END OF TIME STEP    9, STRESS PERIOD    2

end timestep


start timestep kper="2" kstp="10" mode="normal"

 UBDSV1 SAVING  STORAGE-AQUEOUS ON UNIT   1029 AT TIME STEP     10, STRESS PERIOD      2
 UBDSV1 SAVING     FLOW-JA-FACE ON UNIT   1029 AT TIME STEP     10, STRESS PERIOD      2
 UBDSV06 SAVING  SOURCE-SINK MIX IN MODEL GWT              PACKAGE GWT             CONNECTED TO MODEL GWT              PACKAGE SSM              ON UNIT   1029 AT TIME STEP     10, STRESS PERIOD      2
 UBDSV06 SAVING              CNC IN MODEL GWT              PACKAGE GWT             CONNECTED TO MODEL GWT              PACKAGE CNC-1            ON UNIT   1029 AT TIME STEP     10, STRESS PERIOD      2

 CONCENTRATION WILL BE SAVED ON UNIT 1030 AT END OF TIME STEP   10, STRESS PERIOD    2

end timestep


start timestep kper="2" kstp="11" mode="normal"

 UBDSV1 SAVING  STORAGE-AQUEOUS ON UNIT   1029 AT TIME STEP     11, STRESS PERIOD      2
 UBDSV1 SAVING     FLOW-JA-FACE ON UNIT   1029 AT TIME STEP     11, STRESS PERIOD      2
 UBDSV06 SAVING  SOURCE-SINK MIX IN MODEL GWT              PACKAGE GWT             CONNECTED TO MODEL GWT              PACKAGE SSM              ON UNIT   1029 AT TIME STEP     11, STRESS PERIOD      2
 UBDSV06 SAVING              CNC IN MODEL GWT              PACKAGE GWT             CONNECTED TO MODEL GWT              PACKAGE CNC-1            ON UNIT   1029 AT TIME STEP     11, STRESS PERIOD      2

 CONCENTRATION WILL BE SAVED ON UNIT 1030 AT END OF TIME STEP   11, STRESS PERIOD    2

end timestep


start timestep kper="2" kstp="12" mode="normal"

 UBDSV1 SAVING  STORAGE-AQUEOUS ON UNIT   1029 AT TIME STEP     12, STRESS PERIOD      2
 UBDSV1 SAVING     FLOW-JA-FACE ON UNIT   1029 AT TIME STEP     12, STRESS PERIOD      2
 UBDSV06 SAVING  SOURCE-SINK MIX IN MODEL GWT              PACKAGE GWT             CONNECTED TO MODEL GWT              PACKAGE SSM              ON UNIT   1029 AT TIME STEP     12, STRESS PERIOD      2
 UBDSV06 SAVING              CNC IN MODEL GWT              PACKAGE GWT             CONNECTED TO MODEL GWT              PACKAGE CNC-1            ON UNIT   1029 AT TIME STEP     12, STRESS PERIOD      2

 CONCENTRATION WILL BE SAVED ON UNIT 1030 AT END OF TIME STEP   12, STRESS PERIOD    2

end timestep


start timestep kper="2" kstp="13" mode="normal"

 UBDSV1 SAVING  STORAGE-AQUEOUS ON UNIT   1029 AT TIME STEP     13, STRESS PERIOD      2
 UBDSV1 SAVING     FLOW-JA-FACE ON UNIT   1029 AT TIME STEP     13, STRESS PERIOD      2
 UBDSV06 SAVING  SOURCE-SINK MIX IN MODEL GWT              PACKAGE GWT             CONNECTED TO MODEL GWT              PACKAGE SSM              ON UNIT   1029 AT TIME STEP     13, STRESS PERIOD      2
 UBDSV06 SAVING              CNC IN MODEL GWT              PACKAGE GWT             CONNECTED TO MODEL GWT              PACKAGE CNC-1            ON UNIT   1029 AT TIME STEP     13, STRESS PERIOD      2

 CONCENTRATION WILL BE SAVED ON UNIT 1030 AT END OF TIME STEP   13, STRESS PERIOD    2

end timestep


start timestep kper="2" kstp="14" mode="normal"

 UBDSV1 SAVING  STORAGE-AQUEOUS ON UNIT   1029 AT TIME STEP     14, STRESS PERIOD      2
 UBDSV1 SAVING     FLOW-JA-FACE ON UNIT   1029 AT TIME STEP     14, STRESS PERIOD      2
 UBDSV06 SAVING  SOURCE-SINK MIX IN MODEL GWT              PACKAGE GWT             CONNECTED TO MODEL GWT              PACKAGE SSM              ON UNIT   1029 AT TIME STEP     14, STRESS PERIOD      2
 UBDSV06 SAVING              CNC IN MODEL GWT              PACKAGE GWT             CONNECTED TO MODEL GWT              PACKAGE CNC-1            ON UNIT   1029 AT TIME STEP     14, STRESS PERIOD      2

 CONCENTRATION WILL BE SAVED ON UNIT 1030 AT END OF TIME STEP   14, STRESS PERIOD    2

end timestep


start timestep kper="2" kstp="15" mode="normal"

 UBDSV1 SAVING  STORAGE-AQUEOUS ON UNIT   1029 AT TIME STEP     15, STRESS PERIOD      2
 UBDSV1 SAVING     FLOW-JA-FACE ON UNIT   1029 AT TIME STEP     15, STRESS PERIOD      2
 UBDSV06 SAVING  SOURCE-SINK MIX IN MODEL GWT              PACKAGE GWT             CONNECTED TO MODEL GWT              PACKAGE SSM              ON UNIT   1029 AT TIME STEP     15, STRESS PERIOD      2
 UBDSV06 SAVING              CNC IN MODEL GWT              PACKAGE GWT             CONNECTED TO MODEL GWT              PACKAGE CNC-1            ON UNIT   1029 AT TIME STEP     15, STRESS PERIOD      2

 CONCENTRATION WILL BE SAVED ON UNIT 1030 AT END OF TIME STEP   15, STRESS PERIOD    2

end timestep


start timestep kper="2" kstp="16" mode="normal"

 UBDSV1 SAVING  STORAGE-AQUEOUS ON UNIT   1029 AT TIME STEP     16, STRESS PERIOD      2
 UBDSV1 SAVING     FLOW-JA-FACE ON UNIT   1029 AT TIME STEP     16, STRESS PERIOD      2
 UBDSV06 SAVING  SOURCE-SINK MIX IN MODEL GWT              PACKAGE GWT             CONNECTED TO MODEL GWT              PACKAGE SSM              ON UNIT   1029 AT TIME STEP     16, STRESS PERIOD      2
 UBDSV06 SAVING              CNC IN MODEL GWT              PACKAGE GWT             CONNECTED TO MODEL GWT              PACKAGE CNC-1            ON UNIT   1029 AT TIME STEP     16, STRESS PERIOD      2

 CONCENTRATION WILL BE SAVED ON UNIT 1030 AT END OF TIME STEP   16, STRESS PERIOD    2

end timestep


start timestep kper="2" kstp="17" mode="normal"

 UBDSV1 SAVING  STORAGE-AQUEOUS ON UNIT   1029 AT TIME STEP     17, STRESS PERIOD      2
 UBDSV1 SAVING     FLOW-JA-FACE ON UNIT   1029 AT TIME STEP     17, STRESS PERIOD      2
 UBDSV06 SAVING  SOURCE-SINK MIX IN MODEL GWT              PACKAGE GWT             CONNECTED TO MODEL GWT              PACKAGE SSM              ON UNIT   1029 AT TIME STEP     17, STRESS PERIOD      2
 UBDSV06 SAVING              CNC IN MODEL GWT              PACKAGE GWT             CONNECTED TO MODEL GWT              PACKAGE CNC-1            ON UNIT   1029 AT TIME STEP     17, STRESS PERIOD      2

 CONCENTRATION WILL BE SAVED ON UNIT 1030 AT END OF TIME STEP   17, STRESS PERIOD    2

end timestep


start timestep kper="2" kstp="18" mode="normal"

 UBDSV1 SAVING  STORAGE-AQUEOUS ON UNIT   1029 AT TIME STEP     18, STRESS PERIOD      2
 UBDSV1 SAVING     FLOW-JA-FACE ON UNIT   1029 AT TIME STEP     18, STRESS PERIOD      2
 UBDSV06 SAVING  SOURCE-SINK MIX IN MODEL GWT              PACKAGE GWT             CONNECTED TO MODEL GWT              PACKAGE SSM              ON UNIT   1029 AT TIME STEP     18, STRESS PERIOD      2
 UBDSV06 SAVING              CNC IN MODEL GWT              PACKAGE GWT             CONNECTED TO MODEL GWT              PACKAGE CNC-1            ON UNIT   1029 AT TIME STEP     18, STRESS PERIOD      2

 CONCENTRATION WILL BE SAVED ON UNIT 1030 AT END OF TIME STEP   18, STRESS PERIOD    2

end timestep


start timestep kper="2" kstp="19" mode="normal"

 UBDSV1 SAVING  STORAGE-AQUEOUS ON UNIT   1029 AT TIME STEP     19, STRESS PERIOD      2
 UBDSV1 SAVING     FLOW-JA-FACE ON UNIT   1029 AT TIME STEP     19, STRESS PERIOD      2
 UBDSV06 SAVING  SOURCE-SINK MIX IN MODEL GWT              PACKAGE GWT             CONNECTED TO MODEL GWT              PACKAGE SSM              ON UNIT   1029 AT TIME STEP     19, STRESS PERIOD      2
 UBDSV06 SAVING              CNC IN MODEL GWT              PACKAGE GWT             CONNECTED TO MODEL GWT              PACKAGE CNC-1            ON UNIT   1029 AT TIME STEP     19, STRESS PERIOD      2

 CONCENTRATION WILL BE SAVED ON UNIT 1030 AT END OF TIME STEP   19, STRESS PERIOD    2

end timestep


start timestep kper="2" kstp="20" mode="normal"

 UBDSV1 SAVING  STORAGE-AQUEOUS ON UNIT   1029 AT TIME STEP     20, STRESS PERIOD      2
 UBDSV1 SAVING     FLOW-JA-FACE ON UNIT   1029 AT TIME STEP     20, STRESS PERIOD      2
 UBDSV06 SAVING  SOURCE-SINK MIX IN MODEL GWT              PACKAGE GWT             CONNECTED TO MODEL GWT              PACKAGE SSM              ON UNIT   1029 AT TIME STEP     20, STRESS PERIOD      2
 UBDSV06 SAVING              CNC IN MODEL GWT              PACKAGE GWT             CONNECTED TO MODEL GWT              PACKAGE CNC-1            ON UNIT   1029 AT TIME STEP     20, STRESS PERIOD      2

 CONCENTRATION WILL BE SAVED ON UNIT 1030 AT END OF TIME STEP   20, STRESS PERIOD    2

end timestep


start timestep kper="2" kstp="21" mode="normal"

 UBDSV1 SAVING  STORAGE-AQUEOUS ON UNIT   1029 AT TIME STEP     21, STRESS PERIOD      2
 UBDSV1 SAVING     FLOW-JA-FACE ON UNIT   1029 AT TIME STEP     21, STRESS PERIOD      2
 UBDSV06 SAVING  SOURCE-SINK MIX IN MODEL GWT              PACKAGE GWT             CONNECTED TO MODEL GWT              PACKAGE SSM              ON UNIT   1029 AT TIME STEP     21, STRESS PERIOD      2
 UBDSV06 SAVING              CNC IN MODEL GWT              PACKAGE GWT             CONNECTED TO MODEL GWT              PACKAGE CNC-1            ON UNIT   1029 AT TIME STEP     21, STRESS PERIOD      2

 CONCENTRATION WILL BE SAVED ON UNIT 1030 AT END OF TIME STEP   21, STRESS PERIOD    2

end timestep


start timestep kper="2" kstp="22" mode="normal"

 UBDSV1 SAVING  STORAGE-AQUEOUS ON UNIT   1029 AT TIME STEP     22, STRESS PERIOD      2
 UBDSV1 SAVING     FLOW-JA-FACE ON UNIT   1029 AT TIME STEP     22, STRESS PERIOD      2
 UBDSV06 SAVING  SOURCE-SINK MIX IN MODEL GWT              PACKAGE GWT             CONNECTED TO MODEL GWT              PACKAGE SSM              ON UNIT   1029 AT TIME STEP     22, STRESS PERIOD      2
 UBDSV06 SAVING              CNC IN MODEL GWT              PACKAGE GWT             CONNECTED TO MODEL GWT              PACKAGE CNC-1            ON UNIT   1029 AT TIME STEP     22, STRESS PERIOD      2

 CONCENTRATION WILL BE SAVED ON UNIT 1030 AT END OF TIME STEP   22, STRESS PERIOD    2

end timestep


start timestep kper="2" kstp="23" mode="normal"

 UBDSV1 SAVING  STORAGE-AQUEOUS ON UNIT   1029 AT TIME STEP     23, STRESS PERIOD      2
 UBDSV1 SAVING     FLOW-JA-FACE ON UNIT   1029 AT TIME STEP     23, STRESS PERIOD      2
 UBDSV06 SAVING  SOURCE-SINK MIX IN MODEL GWT              PACKAGE GWT             CONNECTED TO MODEL GWT              PACKAGE SSM              ON UNIT   1029 AT TIME STEP     23, STRESS PERIOD      2
 UBDSV06 SAVING              CNC IN MODEL GWT              PACKAGE GWT             CONNECTED TO MODEL GWT              PACKAGE CNC-1            ON UNIT   1029 AT TIME STEP     23, STRESS PERIOD      2

 CONCENTRATION WILL BE SAVED ON UNIT 1030 AT END OF TIME STEP   23, STRESS PERIOD    2

end timestep


start timestep kper="2" kstp="24" mode="normal"

 UBDSV1 SAVING  STORAGE-AQUEOUS ON UNIT   1029 AT TIME STEP     24, STRESS PERIOD      2
 UBDSV1 SAVING     FLOW-JA-FACE ON UNIT   1029 AT TIME STEP     24, STRESS PERIOD      2
 UBDSV06 SAVING  SOURCE-SINK MIX IN MODEL GWT              PACKAGE GWT             CONNECTED TO MODEL GWT              PACKAGE SSM              ON UNIT   1029 AT TIME STEP     24, STRESS PERIOD      2
 UBDSV06 SAVING              CNC IN MODEL GWT              PACKAGE GWT             CONNECTED TO MODEL GWT              PACKAGE CNC-1            ON UNIT   1029 AT TIME STEP     24, STRESS PERIOD      2

 CONCENTRATION WILL BE SAVED ON UNIT 1030 AT END OF TIME STEP   24, STRESS PERIOD    2

end timestep


start timestep kper="2" kstp="25" mode="normal"

 UBDSV1 SAVING  STORAGE-AQUEOUS ON UNIT   1029 AT TIME STEP     25, STRESS PERIOD      2
 UBDSV1 SAVING     FLOW-JA-FACE ON UNIT   1029 AT TIME STEP     25, STRESS PERIOD      2
 UBDSV06 SAVING  SOURCE-SINK MIX IN MODEL GWT              PACKAGE GWT             CONNECTED TO MODEL GWT              PACKAGE SSM              ON UNIT   1029 AT TIME STEP     25, STRESS PERIOD      2
 UBDSV06 SAVING              CNC IN MODEL GWT              PACKAGE GWT             CONNECTED TO MODEL GWT              PACKAGE CNC-1            ON UNIT   1029 AT TIME STEP     25, STRESS PERIOD      2

 CONCENTRATION WILL BE SAVED ON UNIT 1030 AT END OF TIME STEP   25, STRESS PERIOD    2

end timestep


start timestep kper="2" kstp="26" mode="normal"

 UBDSV1 SAVING  STORAGE-AQUEOUS ON UNIT   1029 AT TIME STEP     26, STRESS PERIOD      2
 UBDSV1 SAVING     FLOW-JA-FACE ON UNIT   1029 AT TIME STEP     26, STRESS PERIOD      2
 UBDSV06 SAVING  SOURCE-SINK MIX IN MODEL GWT              PACKAGE GWT             CONNECTED TO MODEL GWT              PACKAGE SSM              ON UNIT   1029 AT TIME STEP     26, STRESS PERIOD      2
 UBDSV06 SAVING              CNC IN MODEL GWT              PACKAGE GWT             CONNECTED TO MODEL GWT              PACKAGE CNC-1            ON UNIT   1029 AT TIME STEP     26, STRESS PERIOD      2

 CONCENTRATION WILL BE SAVED ON UNIT 1030 AT END OF TIME STEP   26, STRESS PERIOD    2

end timestep


start timestep kper="2" kstp="27" mode="normal"

 UBDSV1 SAVING  STORAGE-AQUEOUS ON UNIT   1029 AT TIME STEP     27, STRESS PERIOD      2
 UBDSV1 SAVING     FLOW-JA-FACE ON UNIT   1029 AT TIME STEP     27, STRESS PERIOD      2
 UBDSV06 SAVING  SOURCE-SINK MIX IN MODEL GWT              PACKAGE GWT             CONNECTED TO MODEL GWT              PACKAGE SSM              ON UNIT   1029 AT TIME STEP     27, STRESS PERIOD      2
 UBDSV06 SAVING              CNC IN MODEL GWT              PACKAGE GWT             CONNECTED TO MODEL GWT              PACKAGE CNC-1            ON UNIT   1029 AT TIME STEP     27, STRESS PERIOD      2

 CONCENTRATION WILL BE SAVED ON UNIT 1030 AT END OF TIME STEP   27, STRESS PERIOD    2

end timestep


start timestep kper="2" kstp="28" mode="normal"

 UBDSV1 SAVING  STORAGE-AQUEOUS ON UNIT   1029 AT TIME STEP     28, STRESS PERIOD      2
 UBDSV1 SAVING     FLOW-JA-FACE ON UNIT   1029 AT TIME STEP     28, STRESS PERIOD      2
 UBDSV06 SAVING  SOURCE-SINK MIX IN MODEL GWT              PACKAGE GWT             CONNECTED TO MODEL GWT              PACKAGE SSM              ON UNIT   1029 AT TIME STEP     28, STRESS PERIOD      2
 UBDSV06 SAVING              CNC IN MODEL GWT              PACKAGE GWT             CONNECTED TO MODEL GWT              PACKAGE CNC-1            ON UNIT   1029 AT TIME STEP     28, STRESS PERIOD      2

 CONCENTRATION WILL BE SAVED ON UNIT 1030 AT END OF TIME STEP   28, STRESS PERIOD    2

end timestep


start timestep kper="2" kstp="29" mode="normal"

 UBDSV1 SAVING  STORAGE-AQUEOUS ON UNIT   1029 AT TIME STEP     29, STRESS PERIOD      2
 UBDSV1 SAVING     FLOW-JA-FACE ON UNIT   1029 AT TIME STEP     29, STRESS PERIOD      2
 UBDSV06 SAVING  SOURCE-SINK MIX IN MODEL GWT              PACKAGE GWT             CONNECTED TO MODEL GWT              PACKAGE SSM              ON UNIT   1029 AT TIME STEP     29, STRESS PERIOD      2
 UBDSV06 SAVING              CNC IN MODEL GWT              PACKAGE GWT             CONNECTED TO MODEL GWT              PACKAGE CNC-1            ON UNIT   1029 AT TIME STEP     29, STRESS PERIOD      2

 CONCENTRATION WILL BE SAVED ON UNIT 1030 AT END OF TIME STEP   29, STRESS PERIOD    2

end timestep


start timestep kper="2" kstp="30" mode="normal"

 UBDSV1 SAVING  STORAGE-AQUEOUS ON UNIT   1029 AT TIME STEP     30, STRESS PERIOD      2
 UBDSV1 SAVING     FLOW-JA-FACE ON UNIT   1029 AT TIME STEP     30, STRESS PERIOD      2
 UBDSV06 SAVING  SOURCE-SINK MIX IN MODEL GWT              PACKAGE GWT             CONNECTED TO MODEL GWT              PACKAGE SSM              ON UNIT   1029 AT TIME STEP     30, STRESS PERIOD      2
 UBDSV06 SAVING              CNC IN MODEL GWT              PACKAGE GWT             CONNECTED TO MODEL GWT              PACKAGE CNC-1            ON UNIT   1029 AT TIME STEP     30, STRESS PERIOD      2
1
  CONCENTRATION IN LAYER   1 AT END OF TIME STEP  30 IN STRESS PERIOD    2
  ---------------------------------------------------------------------------

                1               2               3               4               5               6               7               8               9              10
 ................................................................................................................................................................
   1     0.100000        0.100000        0.100000        0.100130        0.100001        0.100000        0.100000        0.100000        0.100000        0.100000    
   2     0.100000        0.100000        0.100113        0.133468        0.100287        0.100002        0.100000        0.100000        0.100000        0.100000    
   3     0.100000        0.100157        0.134157         1.81453        0.150355        0.100530        0.100003        0.100000        0.100000        0.100000    
   4     0.100000        0.100001        0.100293        0.150277        0.100870        0.100009        0.100000        0.100000        0.100000        0.100000    
   5     0.100000        0.100000        0.100002        0.100519        0.100008        0.100000        0.100000        0.100000        0.100000        0.100000    
   6     0.100000        0.100000        0.100000        0.100002        0.100000        0.100000        0.100000        0.100000        0.100000        0.100000    
   7     0.100000        0.100000        0.100000        0.100000        0.100000        0.100000        0.100000        0.100000        0.100000        0.100000    
   8     0.100000        0.100000        0.100000        0.100000        0.100000        0.100000        0.100000        0.100000        0.100000        0.100000    
   9     0.100000        0.100000        0.100000        0.100000        0.100000        0.100000        0.100000        0.100000        0.100000        0.100000    
  10     0.100000        0.100000        0.100000        0.100000        0.100000        0.100000        0.100000        0.100000        0.100000        0.100000    

 CONCENTRATION WILL BE SAVED ON UNIT 1030 AT END OF TIME STEP   30, STRESS PERIOD    2


  MASS BUDGET FOR ENTIRE MODEL AT END OF TIME STEP   30, STRESS PERIOD   2
  ---------------------------------------------------------------------------------------------------

     CUMULATIVE MASS      M       RATES FOR THIS TIME STEP      M/T          PACKAGE NAME    
     ------------------                 ------------------------                     ----------------

           IN:                                      IN:
           ---                                      ---
     STORAGE-AQUEOUS =       5.2679E-07       STORAGE-AQUEOUS =       1.9658E-09     MST                              
                 WEL =        6000.0000                   WEL =         100.0000     SSM_WEL-1                        
                 CHD =           0.0000                   CHD =           0.0000     SSM_CHD-1                        
                 CNC =           0.0000                   CNC =           0.0000     CNC-1                            

            TOTAL IN =        6000.0000              TOTAL IN =         100.0000

          OUT:                                     OUT:
          ----                                     ----
     STORAGE-AQUEOUS =        5940.0000       STORAGE-AQUEOUS =          99.0000     MST                              
                 WEL =           0.0000                   WEL =           0.0000     SSM_WEL-1                        
                 CHD =           0.0000                   CHD =           0.0000     SSM_CHD-1                        
                 CNC =          60.0000                   CNC =           1.0000     CNC-1                            

           TOTAL OUT =        6000.0000             TOTAL OUT =         100.0000

            IN - OUT =       2.6375E-11              IN - OUT =       2.8422E-14

 PERCENT DISCREPANCY =           0.00     PERCENT DISCREPANCY =           0.00




         TIME SUMMARY AT END OF TIME STEP   30 IN STRESS PERIOD    2
                    SECONDS     MINUTES      HOURS       DAYS        YEARS
                    -----------------------------------------------------------
   TIME STEP LENGTH  86400.      1440.0      24.000      1.0000     2.73785E-03
 STRESS PERIOD TIME 2.59200E+06  43200.      720.00      30.000     8.21355E-02
         TOTAL TIME 5.18400E+06  86400.      1440.0      60.000     0.16427    


end timestep


start timestep kper="3" kstp="1" mode="normal"


 OUTPUT CONTROL FOR STRESS PERIOD 3 IS REPEATED USING SETTINGS FROM A PREVIOUS STRESS PERIOD.
 UBDSV1 SAVING  STORAGE-AQUEOUS ON UNIT   1029 AT TIME STEP      1, STRESS PERIOD      3
 UBDSV1 SAVING     FLOW-JA-FACE ON UNIT   1029 AT TIME STEP      1, STRESS PERIOD      3
 UBDSV06 SAVING  SOURCE-SINK MIX IN MODEL GWT              PACKAGE GWT             CONNECTED TO MODEL GWT              PACKAGE SSM              ON UNIT   1029 AT TIME STEP      1, STRESS PERIOD      3
 UBDSV06 SAVING              CNC IN MODEL GWT              PACKAGE GWT             CONNECTED TO MODEL GWT              PACKAGE CNC-1            ON UNIT   1029 AT TIME STEP      1, STRESS PERIOD      3

 CONCENTRATION WILL BE SAVED ON UNIT 1030 AT END OF TIME STEP    1, STRESS PERIOD    3

end timestep


start timestep kper="3" kstp="2" mode="normal"

 UBDSV1 SAVING  STORAGE-AQUEOUS ON UNIT   1029 AT TIME STEP      2, STRESS PERIOD      3
 UBDSV1 SAVING     FLOW-JA-FACE ON UNIT   1029 AT TIME STEP      2, STRESS PERIOD      3
 UBDSV06 SAVING  SOURCE-SINK MIX IN MODEL GWT              PACKAGE GWT             CONNECTED TO MODEL GWT              PACKAGE SSM              ON UNIT   1029 AT TIME STEP      2, STRESS PERIOD      3
 UBDSV06 SAVING              CNC IN MODEL GWT              PACKAGE GWT             CONNECTED TO MODEL GWT              PACKAGE CNC-1            ON UNIT   1029 AT TIME STEP      2, STRESS PERIOD      3

 CONCENTRATION WILL BE SAVED ON UNIT 1030 AT END OF TIME STEP    2, STRESS PERIOD    3

end timestep


start timestep kper="3" kstp="3" mode="normal"

 UBDSV1 SAVING  STORAGE-AQUEOUS ON UNIT   1029 AT TIME STEP      3, STRESS PERIOD      3
 UBDSV1 SAVING     FLOW-JA-FACE ON UNIT   1029 AT TIME STEP      3, STRESS PERIOD      3
 UBDSV06 SAVING  SOURCE-SINK MIX IN MODEL GWT              PACKAGE GWT             CONNECTED TO MODEL GWT              PACKAGE SSM              ON UNIT   1029 AT TIME STEP      3, STRESS PERIOD      3
 UBDSV06 SAVING              CNC IN MODEL GWT              PACKAGE GWT             CONNECTED TO MODEL GWT              PACKAGE CNC-1            ON UNIT   1029 AT TIME STEP      3, STRESS PERIOD      3

 CONCENTRATION WILL BE SAVED ON UNIT 1030 AT END OF TIME STEP    3, STRESS PERIOD    3

end timestep


start timestep kper="3" kstp="4" mode="normal"

 UBDSV1 SAVING  STORAGE-AQUEOUS ON UNIT   1029 AT TIME STEP      4, STRESS PERIOD      3
 UBDSV1 SAVING     FLOW-JA-FACE ON UNIT   1029 AT TIME STEP      4, STRESS PERIOD      3
 UBDSV06 SAVING  SOURCE-SINK MIX IN MODEL GWT              PACKAGE GWT             CONNECTED TO MODEL GWT              PACKAGE SSM              ON UNIT   1029 AT TIME STEP      4, STRESS PERIOD      3
 UBDSV06 SAVING              CNC IN MODEL GWT              PACKAGE GWT             CONNECTED TO MODEL GWT              PACKAGE CNC-1            ON UNIT   1029 AT TIME STEP      4, STRESS PERIOD      3

 CONCENTRATION WILL BE SAVED ON UNIT 1030 AT END OF TIME STEP    4, STRESS PERIOD    3

end timestep


start timestep kper="3" kstp="5" mode="normal"

 UBDSV1 SAVING  STORAGE-AQUEOUS ON UNIT   1029 AT TIME STEP      5, STRESS PERIOD      3
 UBDSV1 SAVING     FLOW-JA-FACE ON UNIT   1029 AT TIME STEP      5, STRESS PERIOD      3
 UBDSV06 SAVING  SOURCE-SINK MIX IN MODEL GWT              PACKAGE GWT             CONNECTED TO MODEL GWT              PACKAGE SSM              ON UNIT   1029 AT TIME STEP      5, STRESS PERIOD      3
 UBDSV06 SAVING              CNC IN MODEL GWT              PACKAGE GWT             CONNECTED TO MODEL GWT              PACKAGE CNC-1            ON UNIT   1029 AT TIME STEP      5, STRESS PERIOD      3

 CONCENTRATION WILL BE SAVED ON UNIT 1030 AT END OF TIME STEP    5, STRESS PERIOD    3

end timestep


start timestep kper="3" kstp="6" mode="normal"

 UBDSV1 SAVING  STORAGE-AQUEOUS ON UNIT   1029 AT TIME STEP      6, STRESS PERIOD      3
 UBDSV1 SAVING     FLOW-JA-FACE ON UNIT   1029 AT TIME STEP      6, STRESS PERIOD      3
 UBDSV06 SAVING  SOURCE-SINK MIX IN MODEL GWT              PACKAGE GWT             CONNECTED TO MODEL GWT              PACKAGE SSM              ON UNIT   1029 AT TIME STEP      6, STRESS PERIOD      3
 UBDSV06 SAVING              CNC IN MODEL GWT              PACKAGE GWT             CONNECTED TO MODEL GWT              PACKAGE CNC-1            ON UNIT   1029 AT TIME STEP      6, STRESS PERIOD      3

 CONCENTRATION WILL BE SAVED ON UNIT 1030 AT END OF TIME STEP    6, STRESS PERIOD    3

end timestep


start timestep kper="3" kstp="7" mode="normal"

 UBDSV1 SAVING  STORAGE-AQUEOUS ON UNIT   1029 AT TIME STEP      7, STRESS PERIOD      3
 UBDSV1 SAVING     FLOW-JA-FACE ON UNIT   1029 AT TIME STEP      7, STRESS PERIOD      3
 UBDSV06 SAVING  SOURCE-SINK MIX IN MODEL GWT              PACKAGE GWT             CONNECTED TO MODEL GWT              PACKAGE SSM              ON UNIT   1029 AT TIME STEP      7, STRESS PERIOD      3
 UBDSV06 SAVING              CNC IN MODEL GWT              PACKAGE GWT             CONNECTED TO MODEL GWT              PACKAGE CNC-1            ON UNIT   1029 AT TIME STEP      7, STRESS PERIOD      3

 CONCENTRATION WILL BE SAVED ON UNIT 1030 AT END OF TIME STEP    7, STRESS PERIOD    3

end timestep


start timestep kper="3" kstp="8" mode="normal"

 UBDSV1 SAVING  STORAGE-AQUEOUS ON UNIT   1029 AT TIME STEP      8, STRESS PERIOD      3
 UBDSV1 SAVING     FLOW-JA-FACE ON UNIT   1029 AT TIME STEP      8, STRESS PERIOD      3
 UBDSV06 SAVING  SOURCE-SINK MIX IN MODEL GWT              PACKAGE GWT             CONNECTED TO MODEL GWT              PACKAGE SSM              ON UNIT   1029 AT TIME STEP      8, STRESS PERIOD      3
 UBDSV06 SAVING              CNC IN MODEL GWT              PACKAGE GWT             CONNECTED TO MODEL GWT              PACKAGE CNC-1            ON UNIT   1029 AT TIME STEP      8, STRESS PERIOD      3

 CONCENTRATION WILL BE SAVED ON UNIT 1030 AT END OF TIME STEP    8, STRESS PERIOD    3

end timestep


start timestep kper="3" kstp="9" mode="normal"

 UBDSV1 SAVING  STORAGE-AQUEOUS ON UNIT   1029 AT TIME STEP      9, STRESS PERIOD      3
 UBDSV1 SAVING     FLOW-JA-FACE ON UNIT   1029 AT TIME STEP      9, STRESS PERIOD      3
 UBDSV06 SAVING  SOURCE-SINK MIX IN MODEL GWT              PACKAGE GWT             CONNECTED TO MODEL GWT              PACKAGE SSM              ON UNIT   1029 AT TIME STEP      9, STRESS PERIOD      3
 UBDSV06 SAVING              CNC IN MODEL GWT              PACKAGE GWT             CONNECTED TO MODEL GWT              PACKAGE CNC-1            ON UNIT   1029 AT TIME STEP      9, STRESS PERIOD      3

 CONCENTRATION WILL BE SAVED ON UNIT 1030 AT END OF TIME STEP    9, STRESS PERIOD    3

end timestep


start timestep kper="3" kstp="10" mode="normal"

 UBDSV1 SAVING  STORAGE-AQUEOUS ON UNIT   1029 AT TIME STEP     10, STRESS PERIOD      3
 UBDSV1 SAVING     FLOW-JA-FACE ON UNIT   1029 AT TIME STEP     10, STRESS PERIOD      3
 UBDSV06 SAVING  SOURCE-SINK MIX IN MODEL GWT              PACKAGE GWT             CONNECTED TO MODEL GWT              PACKAGE SSM              ON UNIT   1029 AT TIME STEP     10, STRESS PERIOD      3
 UBDSV06 SAVING              CNC IN MODEL GWT              PACKAGE GWT             CONNECTED TO MODEL GWT              PACKAGE CNC-1            ON UNIT   1029 AT TIME STEP     10, STRESS PERIOD      3

 CONCENTRATION WILL BE SAVED ON UNIT 1030 AT END OF TIME STEP   10, STRESS PERIOD    3

end timestep


start timestep kper="3" kstp="11" mode="normal"

 UBDSV1 SAVING  STORAGE-AQUEOUS ON UNIT   1029 AT TIME STEP     11, STRESS PERIOD      3
 UBDSV1 SAVING     FLOW-JA-FACE ON UNIT   1029 AT TIME STEP     11, STRESS PERIOD      3
 UBDSV06 SAVING  SOURCE-SINK MIX IN MODEL GWT              PACKAGE GWT             CONNECTED TO MODEL GWT              PACKAGE SSM              ON UNIT   1029 AT TIME STEP     11, STRESS PERIOD      3
 UBDSV06 SAVING              CNC IN MODEL GWT              PACKAGE GWT             CONNECTED TO MODEL GWT              PACKAGE CNC-1            ON UNIT   1029 AT TIME STEP     11, STRESS PERIOD      3

 CONCENTRATION WILL BE SAVED ON UNIT 1030 AT END OF TIME STEP   11, STRESS PERIOD    3

end timestep


start timestep kper="3" kstp="12" mode="normal"

 UBDSV1 SAVING  STORAGE-AQUEOUS ON UNIT   1029 AT TIME STEP     12, STRESS PERIOD      3
 UBDSV1 SAVING     FLOW-JA-FACE ON UNIT   1029 AT TIME STEP     12, STRESS PERIOD      3
 UBDSV06 SAVING  SOURCE-SINK MIX IN MODEL GWT              PACKAGE GWT             CONNECTED TO MODEL GWT              PACKAGE SSM              ON UNIT   1029 AT TIME STEP     12, STRESS PERIOD      3
 UBDSV06 SAVING              CNC IN MODEL GWT              PACKAGE GWT             CONNECTED TO MODEL GWT              PACKAGE CNC-1            ON UNIT   1029 AT TIME STEP     12, STRESS PERIOD      3

 CONCENTRATION WILL BE SAVED ON UNIT 1030 AT END OF TIME STEP   12, STRESS PERIOD    3

end timestep


start timestep kper="3" kstp="13" mode="normal"

 UBDSV1 SAVING  STORAGE-AQUEOUS ON UNIT   1029 AT TIME STEP     13, STRESS PERIOD      3
 UBDSV1 SAVING     FLOW-JA-FACE ON UNIT   1029 AT TIME STEP     13, STRESS PERIOD      3
 UBDSV06 SAVING  SOURCE-SINK MIX IN MODEL GWT              PACKAGE GWT             CONNECTED TO MODEL GWT              PACKAGE SSM              ON UNIT   1029 AT TIME STEP     13, STRESS PERIOD      3
 UBDSV06 SAVING              CNC IN MODEL GWT              PACKAGE GWT             CONNECTED TO MODEL GWT              PACKAGE CNC-1            ON UNIT   1029 AT TIME STEP     13, STRESS PERIOD      3

 CONCENTRATION WILL BE SAVED ON UNIT 1030 AT END OF TIME STEP   13, STRESS PERIOD    3

end timestep


start timestep kper="3" kstp="14" mode="normal"

 UBDSV1 SAVING  STORAGE-AQUEOUS ON UNIT   1029 AT TIME STEP     14, STRESS PERIOD      3
 UBDSV1 SAVING     FLOW-JA-FACE ON UNIT   1029 AT TIME STEP     14, STRESS PERIOD      3
 UBDSV06 SAVING  SOURCE-SINK MIX IN MODEL GWT              PACKAGE GWT             CONNECTED TO MODEL GWT              PACKAGE SSM              ON UNIT   1029 AT TIME STEP     14, STRESS PERIOD      3
 UBDSV06 SAVING              CNC IN MODEL GWT              PACKAGE GWT             CONNECTED TO MODEL GWT              PACKAGE CNC-1            ON UNIT   1029 AT TIME STEP     14, STRESS PERIOD      3

 CONCENTRATION WILL BE SAVED ON UNIT 1030 AT END OF TIME STEP   14, STRESS PERIOD    3

end timestep


start timestep kper="3" kstp="15" mode="normal"

 UBDSV1 SAVING  STORAGE-AQUEOUS ON UNIT   1029 AT TIME STEP     15, STRESS PERIOD      3
 UBDSV1 SAVING     FLOW-JA-FACE ON UNIT   1029 AT TIME STEP     15, STRESS PERIOD      3
 UBDSV06 SAVING  SOURCE-SINK MIX IN MODEL GWT              PACKAGE GWT             CONNECTED TO MODEL GWT              PACKAGE SSM              ON UNIT   1029 AT TIME STEP     15, STRESS PERIOD      3
 UBDSV06 SAVING              CNC IN MODEL GWT              PACKAGE GWT             CONNECTED TO MODEL GWT              PACKAGE CNC-1            ON UNIT   1029 AT TIME STEP     15, STRESS PERIOD      3

 CONCENTRATION WILL BE SAVED ON UNIT 1030 AT END OF TIME STEP   15, STRESS PERIOD    3

end timestep


start timestep kper="3" kstp="16" mode="normal"

 UBDSV1 SAVING  STORAGE-AQUEOUS ON UNIT   1029 AT TIME STEP     16, STRESS PERIOD      3
 UBDSV1 SAVING     FLOW-JA-FACE ON UNIT   1029 AT TIME STEP     16, STRESS PERIOD      3
 UBDSV06 SAVING  SOURCE-SINK MIX IN MODEL GWT              PACKAGE GWT             CONNECTED TO MODEL GWT              PACKAGE SSM              ON UNIT   1029 AT TIME STEP     16, STRESS PERIOD      3
 UBDSV06 SAVING              CNC IN MODEL GWT              PACKAGE GWT             CONNECTED TO MODEL GWT              PACKAGE CNC-1            ON UNIT   1029 AT TIME STEP     16, STRESS PERIOD      3

 CONCENTRATION WILL BE SAVED ON UNIT 1030 AT END OF TIME STEP   16, STRESS PERIOD    3

end timestep


start timestep kper="3" kstp="17" mode="normal"

 UBDSV1 SAVING  STORAGE-AQUEOUS ON UNIT   1029 AT TIME STEP     17, STRESS PERIOD      3
 UBDSV1 SAVING     FLOW-JA-FACE ON UNIT   1029 AT TIME STEP     17, STRESS PERIOD      3
 UBDSV06 SAVING  SOURCE-SINK MIX IN MODEL GWT              PACKAGE GWT             CONNECTED TO MODEL GWT              PACKAGE SSM              ON UNIT   1029 AT TIME STEP     17, STRESS PERIOD      3
 UBDSV06 SAVING              CNC IN MODEL GWT              PACKAGE GWT             CONNECTED TO MODEL GWT              PACKAGE CNC-1            ON UNIT   1029 AT TIME STEP     17, STRESS PERIOD      3

 CONCENTRATION WILL BE SAVED ON UNIT 1030 AT END OF TIME STEP   17, STRESS PERIOD    3

end timestep


start timestep kper="3" kstp="18" mode="normal"

 UBDSV1 SAVING  STORAGE-AQUEOUS ON UNIT   1029 AT TIME STEP     18, STRESS PERIOD      3
 UBDSV1 SAVING     FLOW-JA-FACE ON UNIT   1029 AT TIME STEP     18, STRESS PERIOD      3
 UBDSV06 SAVING  SOURCE-SINK MIX IN MODEL GWT              PACKAGE GWT             CONNECTED TO MODEL GWT              PACKAGE SSM              ON UNIT   1029 AT TIME STEP     18, STRESS PERIOD      3
 UBDSV06 SAVING              CNC IN MODEL GWT              PACKAGE GWT             CONNECTED TO MODEL GWT              PACKAGE CNC-1            ON UNIT   1029 AT TIME STEP     18, STRESS PERIOD      3

 CONCENTRATION WILL BE SAVED ON UNIT 1030 AT END OF TIME STEP   18, STRESS PERIOD    3

end timestep


start timestep kper="3" kstp="19" mode="normal"

 UBDSV1 SAVING  STORAGE-AQUEOUS ON UNIT   1029 AT TIME STEP     19, STRESS PERIOD      3
 UBDSV1 SAVING     FLOW-JA-FACE ON UNIT   1029 AT TIME STEP     19, STRESS PERIOD      3
 UBDSV06 SAVING  SOURCE-SINK MIX IN MODEL GWT              PACKAGE GWT             CONNECTED TO MODEL GWT              PACKAGE SSM              ON UNIT   1029 AT TIME STEP     19, STRESS PERIOD      3
 UBDSV06 SAVING              CNC IN MODEL GWT              PACKAGE GWT             CONNECTED TO MODEL GWT              PACKAGE CNC-1            ON UNIT   1029 AT TIME STEP     19, STRESS PERIOD      3

 CONCENTRATION WILL BE SAVED ON UNIT 1030 AT END OF TIME STEP   19, STRESS PERIOD    3

end timestep


start timestep kper="3" kstp="20" mode="normal"

 UBDSV1 SAVING  STORAGE-AQUEOUS ON UNIT   1029 AT TIME STEP     20, STRESS PERIOD      3
 UBDSV1 SAVING     FLOW-JA-FACE ON UNIT   1029 AT TIME STEP     20, STRESS PERIOD      3
 UBDSV06 SAVING  SOURCE-SINK MIX IN MODEL GWT              PACKAGE GWT             CONNECTED TO MODEL GWT              PACKAGE SSM              ON UNIT   1029 AT TIME STEP     20, STRESS PERIOD      3
 UBDSV06 SAVING              CNC IN MODEL GWT              PACKAGE GWT             CONNECTED TO MODEL GWT              PACKAGE CNC-1            ON UNIT   1029 AT TIME STEP     20, STRESS PERIOD      3

 CONCENTRATION WILL BE SAVED ON UNIT 1030 AT END OF TIME STEP   20, STRESS PERIOD    3

end timestep


start timestep kper="3" kstp="21" mode="normal"

 UBDSV1 SAVING  STORAGE-AQUEOUS ON UNIT   1029 AT TIME STEP     21, STRESS PERIOD      3
 UBDSV1 SAVING     FLOW-JA-FACE ON UNIT   1029 AT TIME STEP     21, STRESS PERIOD      3
 UBDSV06 SAVING  SOURCE-SINK MIX IN MODEL GWT              PACKAGE GWT             CONNECTED TO MODEL GWT              PACKAGE SSM              ON UNIT   1029 AT TIME STEP     21, STRESS PERIOD      3
 UBDSV06 SAVING              CNC IN MODEL GWT              PACKAGE GWT             CONNECTED TO MODEL GWT              PACKAGE CNC-1            ON UNIT   1029 AT TIME STEP     21, STRESS PERIOD      3

 CONCENTRATION WILL BE SAVED ON UNIT 1030 AT END OF TIME STEP   21, STRESS PERIOD    3

end timestep


start timestep kper="3" kstp="22" mode="normal"

 UBDSV1 SAVING  STORAGE-AQUEOUS ON UNIT   1029 AT TIME STEP     22, STRESS PERIOD      3
 UBDSV1 SAVING     FLOW-JA-FACE ON UNIT   1029 AT TIME STEP     22, STRESS PERIOD      3
 UBDSV06 SAVING  SOURCE-SINK MIX IN MODEL GWT              PACKAGE GWT             CONNECTED TO MODEL GWT              PACKAGE SSM              ON UNIT   1029 AT TIME STEP     22, STRESS PERIOD      3
 UBDSV06 SAVING              CNC IN MODEL GWT              PACKAGE GWT             CONNECTED TO MODEL GWT              PACKAGE CNC-1            ON UNIT   1029 AT TIME STEP     22, STRESS PERIOD      3

 CONCENTRATION WILL BE SAVED ON UNIT 1030 AT END OF TIME STEP   22, STRESS PERIOD    3

end timestep


start timestep kper="3" kstp="23" mode="normal"

 UBDSV1 SAVING  STORAGE-AQUEOUS ON UNIT   1029 AT TIME STEP     23, STRESS PERIOD      3
 UBDSV1 SAVING     FLOW-JA-FACE ON UNIT   1029 AT TIME STEP     23, STRESS PERIOD      3
 UBDSV06 SAVING  SOURCE-SINK MIX IN MODEL GWT              PACKAGE GWT             CONNECTED TO MODEL GWT              PACKAGE SSM              ON UNIT   1029 AT TIME STEP     23, STRESS PERIOD      3
 UBDSV06 SAVING              CNC IN MODEL GWT              PACKAGE GWT             CONNECTED TO MODEL GWT              PACKAGE CNC-1            ON UNIT   1029 AT TIME STEP     23, STRESS PERIOD      3

 CONCENTRATION WILL BE SAVED ON UNIT 1030 AT END OF TIME STEP   23, STRESS PERIOD    3

end timestep


start timestep kper="3" kstp="24" mode="normal"

 UBDSV1 SAVING  STORAGE-AQUEOUS ON UNIT   1029 AT TIME STEP     24, STRESS PERIOD      3
 UBDSV1 SAVING     FLOW-JA-FACE ON UNIT   1029 AT TIME STEP     24, STRESS PERIOD      3
 UBDSV06 SAVING  SOURCE-SINK MIX IN MODEL GWT              PACKAGE GWT             CONNECTED TO MODEL GWT              PACKAGE SSM              ON UNIT   1029 AT TIME STEP     24, STRESS PERIOD      3
 UBDSV06 SAVING              CNC IN MODEL GWT              PACKAGE GWT             CONNECTED TO MODEL GWT              PACKAGE CNC-1            ON UNIT   1029 AT TIME STEP     24, STRESS PERIOD      3

 CONCENTRATION WILL BE SAVED ON UNIT 1030 AT END OF TIME STEP   24, STRESS PERIOD    3

end timestep


start timestep kper="3" kstp="25" mode="normal"

 UBDSV1 SAVING  STORAGE-AQUEOUS ON UNIT   1029 AT TIME STEP     25, STRESS PERIOD      3
 UBDSV1 SAVING     FLOW-JA-FACE ON UNIT   1029 AT TIME STEP     25, STRESS PERIOD      3
 UBDSV06 SAVING  SOURCE-SINK MIX IN MODEL GWT              PACKAGE GWT             CONNECTED TO MODEL GWT              PACKAGE SSM              ON UNIT   1029 AT TIME STEP     25, STRESS PERIOD      3
 UBDSV06 SAVING              CNC IN MODEL GWT              PACKAGE GWT             CONNECTED TO MODEL GWT              PACKAGE CNC-1            ON UNIT   1029 AT TIME STEP     25, STRESS PERIOD      3

 CONCENTRATION WILL BE SAVED ON UNIT 1030 AT END OF TIME STEP   25, STRESS PERIOD    3

end timestep


start timestep kper="3" kstp="26" mode="normal"

 UBDSV1 SAVING  STORAGE-AQUEOUS ON UNIT   1029 AT TIME STEP     26, STRESS PERIOD      3
 UBDSV1 SAVING     FLOW-JA-FACE ON UNIT   1029 AT TIME STEP     26, STRESS PERIOD      3
 UBDSV06 SAVING  SOURCE-SINK MIX IN MODEL GWT              PACKAGE GWT             CONNECTED TO MODEL GWT              PACKAGE SSM              ON UNIT   1029 AT TIME STEP     26, STRESS PERIOD      3
 UBDSV06 SAVING              CNC IN MODEL GWT              PACKAGE GWT             CONNECTED TO MODEL GWT              PACKAGE CNC-1            ON UNIT   1029 AT TIME STEP     26, STRESS PERIOD      3

 CONCENTRATION WILL BE SAVED ON UNIT 1030 AT END OF TIME STEP   26, STRESS PERIOD    3

end timestep


start timestep kper="3" kstp="27" mode="normal"

 UBDSV1 SAVING  STORAGE-AQUEOUS ON UNIT   1029 AT TIME STEP     27, STRESS PERIOD      3
 UBDSV1 SAVING     FLOW-JA-FACE ON UNIT   1029 AT TIME STEP     27, STRESS PERIOD      3
 UBDSV06 SAVING  SOURCE-SINK MIX IN MODEL GWT              PACKAGE GWT             CONNECTED TO MODEL GWT              PACKAGE SSM              ON UNIT   1029 AT TIME STEP     27, STRESS PERIOD      3
 UBDSV06 SAVING              CNC IN MODEL GWT              PACKAGE GWT             CONNECTED TO MODEL GWT              PACKAGE CNC-1            ON UNIT   1029 AT TIME STEP     27, STRESS PERIOD      3

 CONCENTRATION WILL BE SAVED ON UNIT 1030 AT END OF TIME STEP   27, STRESS PERIOD    3

end timestep


start timestep kper="3" kstp="28" mode="normal"

 UBDSV1 SAVING  STORAGE-AQUEOUS ON UNIT   1029 AT TIME STEP     28, STRESS PERIOD      3
 UBDSV1 SAVING     FLOW-JA-FACE ON UNIT   1029 AT TIME STEP     28, STRESS PERIOD      3
 UBDSV06 SAVING  SOURCE-SINK MIX IN MODEL GWT              PACKAGE GWT             CONNECTED TO MODEL GWT              PACKAGE SSM              ON UNIT   1029 AT TIME STEP     28, STRESS PERIOD      3
[...]

end timestep


start timestep kper="12" kstp="10" mode="normal"

 UBDSV1 SAVING  STORAGE-AQUEOUS ON UNIT   1029 AT TIME STEP     10, STRESS PERIOD     12
 UBDSV1 SAVING     FLOW-JA-FACE ON UNIT   1029 AT TIME STEP     10, STRESS PERIOD     12
 UBDSV06 SAVING  SOURCE-SINK MIX IN MODEL GWT              PACKAGE GWT             CONNECTED TO MODEL GWT              PACKAGE SSM              ON UNIT   1029 AT TIME STEP     10, STRESS PERIOD     12
 UBDSV06 SAVING              CNC IN MODEL GWT              PACKAGE GWT             CONNECTED TO MODEL GWT              PACKAGE CNC-1            ON UNIT   1029 AT TIME STEP     10, STRESS PERIOD     12

 CONCENTRATION WILL BE SAVED ON UNIT 1030 AT END OF TIME STEP   10, STRESS PERIOD   12

end timestep


start timestep kper="12" kstp="11" mode="normal"

 UBDSV1 SAVING  STORAGE-AQUEOUS ON UNIT   1029 AT TIME STEP     11, STRESS PERIOD     12
 UBDSV1 SAVING     FLOW-JA-FACE ON UNIT   1029 AT TIME STEP     11, STRESS PERIOD     12
 UBDSV06 SAVING  SOURCE-SINK MIX IN MODEL GWT              PACKAGE GWT             CONNECTED TO MODEL GWT              PACKAGE SSM              ON UNIT   1029 AT TIME STEP     11, STRESS PERIOD     12
 UBDSV06 SAVING              CNC IN MODEL GWT              PACKAGE GWT             CONNECTED TO MODEL GWT              PACKAGE CNC-1            ON UNIT   1029 AT TIME STEP     11, STRESS PERIOD     12

 CONCENTRATION WILL BE SAVED ON UNIT 1030 AT END OF TIME STEP   11, STRESS PERIOD   12

end timestep


start timestep kper="12" kstp="12" mode="normal"

 UBDSV1 SAVING  STORAGE-AQUEOUS ON UNIT   1029 AT TIME STEP     12, STRESS PERIOD     12
 UBDSV1 SAVING     FLOW-JA-FACE ON UNIT   1029 AT TIME STEP     12, STRESS PERIOD     12
 UBDSV06 SAVING  SOURCE-SINK MIX IN MODEL GWT              PACKAGE GWT             CONNECTED TO MODEL GWT              PACKAGE SSM              ON UNIT   1029 AT TIME STEP     12, STRESS PERIOD     12
 UBDSV06 SAVING              CNC IN MODEL GWT              PACKAGE GWT             CONNECTED TO MODEL GWT              PACKAGE CNC-1            ON UNIT   1029 AT TIME STEP     12, STRESS PERIOD     12

 CONCENTRATION WILL BE SAVED ON UNIT 1030 AT END OF TIME STEP   12, STRESS PERIOD   12

end timestep


start timestep kper="12" kstp="13" mode="normal"

 UBDSV1 SAVING  STORAGE-AQUEOUS ON UNIT   1029 AT TIME STEP     13, STRESS PERIOD     12
 UBDSV1 SAVING     FLOW-JA-FACE ON UNIT   1029 AT TIME STEP     13, STRESS PERIOD     12
 UBDSV06 SAVING  SOURCE-SINK MIX IN MODEL GWT              PACKAGE GWT             CONNECTED TO MODEL GWT              PACKAGE SSM              ON UNIT   1029 AT TIME STEP     13, STRESS PERIOD     12
 UBDSV06 SAVING              CNC IN MODEL GWT              PACKAGE GWT             CONNECTED TO MODEL GWT              PACKAGE CNC-1            ON UNIT   1029 AT TIME STEP     13, STRESS PERIOD     12

 CONCENTRATION WILL BE SAVED ON UNIT 1030 AT END OF TIME STEP   13, STRESS PERIOD   12

end timestep


start timestep kper="12" kstp="14" mode="normal"

 UBDSV1 SAVING  STORAGE-AQUEOUS ON UNIT   1029 AT TIME STEP     14, STRESS PERIOD     12
 UBDSV1 SAVING     FLOW-JA-FACE ON UNIT   1029 AT TIME STEP     14, STRESS PERIOD     12
 UBDSV06 SAVING  SOURCE-SINK MIX IN MODEL GWT              PACKAGE GWT             CONNECTED TO MODEL GWT              PACKAGE SSM              ON UNIT   1029 AT TIME STEP     14, STRESS PERIOD     12
 UBDSV06 SAVING              CNC IN MODEL GWT              PACKAGE GWT             CONNECTED TO MODEL GWT              PACKAGE CNC-1            ON UNIT   1029 AT TIME STEP     14, STRESS PERIOD     12

 CONCENTRATION WILL BE SAVED ON UNIT 1030 AT END OF TIME STEP   14, STRESS PERIOD   12

end timestep


start timestep kper="12" kstp="15" mode="normal"

 UBDSV1 SAVING  STORAGE-AQUEOUS ON UNIT   1029 AT TIME STEP     15, STRESS PERIOD     12
 UBDSV1 SAVING     FLOW-JA-FACE ON UNIT   1029 AT TIME STEP     15, STRESS PERIOD     12
 UBDSV06 SAVING  SOURCE-SINK MIX IN MODEL GWT              PACKAGE GWT             CONNECTED TO MODEL GWT              PACKAGE SSM              ON UNIT   1029 AT TIME STEP     15, STRESS PERIOD     12
 UBDSV06 SAVING              CNC IN MODEL GWT              PACKAGE GWT             CONNECTED TO MODEL GWT              PACKAGE CNC-1            ON UNIT   1029 AT TIME STEP     15, STRESS PERIOD     12

 CONCENTRATION WILL BE SAVED ON UNIT 1030 AT END OF TIME STEP   15, STRESS PERIOD   12

end timestep


start timestep kper="12" kstp="16" mode="normal"

 UBDSV1 SAVING  STORAGE-AQUEOUS ON UNIT   1029 AT TIME STEP     16, STRESS PERIOD     12
 UBDSV1 SAVING     FLOW-JA-FACE ON UNIT   1029 AT TIME STEP     16, STRESS PERIOD     12
 UBDSV06 SAVING  SOURCE-SINK MIX IN MODEL GWT              PACKAGE GWT             CONNECTED TO MODEL GWT              PACKAGE SSM              ON UNIT   1029 AT TIME STEP     16, STRESS PERIOD     12
 UBDSV06 SAVING              CNC IN MODEL GWT              PACKAGE GWT             CONNECTED TO MODEL GWT              PACKAGE CNC-1            ON UNIT   1029 AT TIME STEP     16, STRESS PERIOD     12

 CONCENTRATION WILL BE SAVED ON UNIT 1030 AT END OF TIME STEP   16, STRESS PERIOD   12

end timestep


start timestep kper="12" kstp="17" mode="normal"

 UBDSV1 SAVING  STORAGE-AQUEOUS ON UNIT   1029 AT TIME STEP     17, STRESS PERIOD     12
 UBDSV1 SAVING     FLOW-JA-FACE ON UNIT   1029 AT TIME STEP     17, STRESS PERIOD     12
 UBDSV06 SAVING  SOURCE-SINK MIX IN MODEL GWT              PACKAGE GWT             CONNECTED TO MODEL GWT              PACKAGE SSM              ON UNIT   1029 AT TIME STEP     17, STRESS PERIOD     12
 UBDSV06 SAVING              CNC IN MODEL GWT              PACKAGE GWT             CONNECTED TO MODEL GWT              PACKAGE CNC-1            ON UNIT   1029 AT TIME STEP     17, STRESS PERIOD     12

 CONCENTRATION WILL BE SAVED ON UNIT 1030 AT END OF TIME STEP   17, STRESS PERIOD   12

end timestep


start timestep kper="12" kstp="18" mode="normal"

 UBDSV1 SAVING  STORAGE-AQUEOUS ON UNIT   1029 AT TIME STEP     18, STRESS PERIOD     12
 UBDSV1 SAVING     FLOW-JA-FACE ON UNIT   1029 AT TIME STEP     18, STRESS PERIOD     12
 UBDSV06 SAVING  SOURCE-SINK MIX IN MODEL GWT              PACKAGE GWT             CONNECTED TO MODEL GWT              PACKAGE SSM              ON UNIT   1029 AT TIME STEP     18, STRESS PERIOD     12
 UBDSV06 SAVING              CNC IN MODEL GWT              PACKAGE GWT             CONNECTED TO MODEL GWT              PACKAGE CNC-1            ON UNIT   1029 AT TIME STEP     18, STRESS PERIOD     12

 CONCENTRATION WILL BE SAVED ON UNIT 1030 AT END OF TIME STEP   18, STRESS PERIOD   12

end timestep


start timestep kper="12" kstp="19" mode="normal"

 UBDSV1 SAVING  STORAGE-AQUEOUS ON UNIT   1029 AT TIME STEP     19, STRESS PERIOD     12
 UBDSV1 SAVING     FLOW-JA-FACE ON UNIT   1029 AT TIME STEP     19, STRESS PERIOD     12
 UBDSV06 SAVING  SOURCE-SINK MIX IN MODEL GWT              PACKAGE GWT             CONNECTED TO MODEL GWT              PACKAGE SSM              ON UNIT   1029 AT TIME STEP     19, STRESS PERIOD     12
 UBDSV06 SAVING              CNC IN MODEL GWT              PACKAGE GWT             CONNECTED TO MODEL GWT              PACKAGE CNC-1            ON UNIT   1029 AT TIME STEP     19, STRESS PERIOD     12

 CONCENTRATION WILL BE SAVED ON UNIT 1030 AT END OF TIME STEP   19, STRESS PERIOD   12

end timestep


start timestep kper="12" kstp="20" mode="normal"

 UBDSV1 SAVING  STORAGE-AQUEOUS ON UNIT   1029 AT TIME STEP     20, STRESS PERIOD     12
 UBDSV1 SAVING     FLOW-JA-FACE ON UNIT   1029 AT TIME STEP     20, STRESS PERIOD     12
 UBDSV06 SAVING  SOURCE-SINK MIX IN MODEL GWT              PACKAGE GWT             CONNECTED TO MODEL GWT              PACKAGE SSM              ON UNIT   1029 AT TIME STEP     20, STRESS PERIOD     12
 UBDSV06 SAVING              CNC IN MODEL GWT              PACKAGE GWT             CONNECTED TO MODEL GWT              PACKAGE CNC-1            ON UNIT   1029 AT TIME STEP     20, STRESS PERIOD     12

 CONCENTRATION WILL BE SAVED ON UNIT 1030 AT END OF TIME STEP   20, STRESS PERIOD   12

end timestep


start timestep kper="12" kstp="21" mode="normal"

 UBDSV1 SAVING  STORAGE-AQUEOUS ON UNIT   1029 AT TIME STEP     21, STRESS PERIOD     12
 UBDSV1 SAVING     FLOW-JA-FACE ON UNIT   1029 AT TIME STEP     21, STRESS PERIOD     12
 UBDSV06 SAVING  SOURCE-SINK MIX IN MODEL GWT              PACKAGE GWT             CONNECTED TO MODEL GWT              PACKAGE SSM              ON UNIT   1029 AT TIME STEP     21, STRESS PERIOD     12
 UBDSV06 SAVING              CNC IN MODEL GWT              PACKAGE GWT             CONNECTED TO MODEL GWT              PACKAGE CNC-1            ON UNIT   1029 AT TIME STEP     21, STRESS PERIOD     12

 CONCENTRATION WILL BE SAVED ON UNIT 1030 AT END OF TIME STEP   21, STRESS PERIOD   12

end timestep


start timestep kper="12" kstp="22" mode="normal"

 UBDSV1 SAVING  STORAGE-AQUEOUS ON UNIT   1029 AT TIME STEP     22, STRESS PERIOD     12
 UBDSV1 SAVING     FLOW-JA-FACE ON UNIT   1029 AT TIME STEP     22, STRESS PERIOD     12
 UBDSV06 SAVING  SOURCE-SINK MIX IN MODEL GWT              PACKAGE GWT             CONNECTED TO MODEL GWT              PACKAGE SSM              ON UNIT   1029 AT TIME STEP     22, STRESS PERIOD     12
 UBDSV06 SAVING              CNC IN MODEL GWT              PACKAGE GWT             CONNECTED TO MODEL GWT              PACKAGE CNC-1            ON UNIT   1029 AT TIME STEP     22, STRESS PERIOD     12

 CONCENTRATION WILL BE SAVED ON UNIT 1030 AT END OF TIME STEP   22, STRESS PERIOD   12

end timestep


start timestep kper="12" kstp="23" mode="normal"

 UBDSV1 SAVING  STORAGE-AQUEOUS ON UNIT   1029 AT TIME STEP     23, STRESS PERIOD     12
 UBDSV1 SAVING     FLOW-JA-FACE ON UNIT   1029 AT TIME STEP     23, STRESS PERIOD     12
 UBDSV06 SAVING  SOURCE-SINK MIX IN MODEL GWT              PACKAGE GWT             CONNECTED TO MODEL GWT              PACKAGE SSM              ON UNIT   1029 AT TIME STEP     23, STRESS PERIOD     12
 UBDSV06 SAVING              CNC IN MODEL GWT              PACKAGE GWT             CONNECTED TO MODEL GWT              PACKAGE CNC-1            ON UNIT   1029 AT TIME STEP     23, STRESS PERIOD     12

 CONCENTRATION WILL BE SAVED ON UNIT 1030 AT END OF TIME STEP   23, STRESS PERIOD   12

end timestep


start timestep kper="12" kstp="24" mode="normal"

 UBDSV1 SAVING  STORAGE-AQUEOUS ON UNIT   1029 AT TIME STEP     24, STRESS PERIOD     12
 UBDSV1 SAVING     FLOW-JA-FACE ON UNIT   1029 AT TIME STEP     24, STRESS PERIOD     12
 UBDSV06 SAVING  SOURCE-SINK MIX IN MODEL GWT              PACKAGE GWT             CONNECTED TO MODEL GWT              PACKAGE SSM              ON UNIT   1029 AT TIME STEP     24, STRESS PERIOD     12
 UBDSV06 SAVING              CNC IN MODEL GWT              PACKAGE GWT             CONNECTED TO MODEL GWT              PACKAGE CNC-1            ON UNIT   1029 AT TIME STEP     24, STRESS PERIOD     12

 CONCENTRATION WILL BE SAVED ON UNIT 1030 AT END OF TIME STEP   24, STRESS PERIOD   12

end timestep


start timestep kper="12" kstp="25" mode="normal"

 UBDSV1 SAVING  STORAGE-AQUEOUS ON UNIT   1029 AT TIME STEP     25, STRESS PERIOD     12
 UBDSV1 SAVING     FLOW-JA-FACE ON UNIT   1029 AT TIME STEP     25, STRESS PERIOD     12
 UBDSV06 SAVING  SOURCE-SINK MIX IN MODEL GWT              PACKAGE GWT             CONNECTED TO MODEL GWT              PACKAGE SSM              ON UNIT   1029 AT TIME STEP     25, STRESS PERIOD     12
 UBDSV06 SAVING              CNC IN MODEL GWT              PACKAGE GWT             CONNECTED TO MODEL GWT              PACKAGE CNC-1            ON UNIT   1029 AT TIME STEP     25, STRESS PERIOD     12

 CONCENTRATION WILL BE SAVED ON UNIT 1030 AT END OF TIME STEP   25, STRESS PERIOD   12

end timestep


start timestep kper="12" kstp="26" mode="normal"

 UBDSV1 SAVING  STORAGE-AQUEOUS ON UNIT   1029 AT TIME STEP     26, STRESS PERIOD     12
 UBDSV1 SAVING     FLOW-JA-FACE ON UNIT   1029 AT TIME STEP     26, STRESS PERIOD     12
 UBDSV06 SAVING  SOURCE-SINK MIX IN MODEL GWT              PACKAGE GWT             CONNECTED TO MODEL GWT              PACKAGE SSM              ON UNIT   1029 AT TIME STEP     26, STRESS PERIOD     12
 UBDSV06 SAVING              CNC IN MODEL GWT              PACKAGE GWT             CONNECTED TO MODEL GWT              PACKAGE CNC-1            ON UNIT   1029 AT TIME STEP     26, STRESS PERIOD     12

 CONCENTRATION WILL BE SAVED ON UNIT 1030 AT END OF TIME STEP   26, STRESS PERIOD   12

end timestep


start timestep kper="12" kstp="27" mode="normal"

 UBDSV1 SAVING  STORAGE-AQUEOUS ON UNIT   1029 AT TIME STEP     27, STRESS PERIOD     12
 UBDSV1 SAVING     FLOW-JA-FACE ON UNIT   1029 AT TIME STEP     27, STRESS PERIOD     12
 UBDSV06 SAVING  SOURCE-SINK MIX IN MODEL GWT              PACKAGE GWT             CONNECTED TO MODEL GWT              PACKAGE SSM              ON UNIT   1029 AT TIME STEP     27, STRESS PERIOD     12
 UBDSV06 SAVING              CNC IN MODEL GWT              PACKAGE GWT             CONNECTED TO MODEL GWT              PACKAGE CNC-1            ON UNIT   1029 AT TIME STEP     27, STRESS PERIOD     12

 CONCENTRATION WILL BE SAVED ON UNIT 1030 AT END OF TIME STEP   27, STRESS PERIOD   12

end timestep


start timestep kper="12" kstp="28" mode="normal"

 UBDSV1 SAVING  STORAGE-AQUEOUS ON UNIT   1029 AT TIME STEP     28, STRESS PERIOD     12
 UBDSV1 SAVING     FLOW-JA-FACE ON UNIT   1029 AT TIME STEP     28, STRESS PERIOD     12
 UBDSV06 SAVING  SOURCE-SINK MIX IN MODEL GWT              PACKAGE GWT             CONNECTED TO MODEL GWT              PACKAGE SSM              ON UNIT   1029 AT TIME STEP     28, STRESS PERIOD     12
 UBDSV06 SAVING              CNC IN MODEL GWT              PACKAGE GWT             CONNECTED TO MODEL GWT              PACKAGE CNC-1            ON UNIT   1029 AT TIME STEP     28, STRESS PERIOD     12

 CONCENTRATION WILL BE SAVED ON UNIT 1030 AT END OF TIME STEP   28, STRESS PERIOD   12

end timestep


start timestep kper="12" kstp="29" mode="normal"

 UBDSV1 SAVING  STORAGE-AQUEOUS ON UNIT   1029 AT TIME STEP     29, STRESS PERIOD     12
 UBDSV1 SAVING     FLOW-JA-FACE ON UNIT   1029 AT TIME STEP     29, STRESS PERIOD     12
 UBDSV06 SAVING  SOURCE-SINK MIX IN MODEL GWT              PACKAGE GWT             CONNECTED TO MODEL GWT              PACKAGE SSM              ON UNIT   1029 AT TIME STEP     29, STRESS PERIOD     12
 UBDSV06 SAVING              CNC IN MODEL GWT              PACKAGE GWT             CONNECTED TO MODEL GWT              PACKAGE CNC-1            ON UNIT   1029 AT TIME STEP     29, STRESS PERIOD     12

 CONCENTRATION WILL BE SAVED ON UNIT 1030 AT END OF TIME STEP   29, STRESS PERIOD   12

end timestep


start timestep kper="12" kstp="30" mode="normal"

 UBDSV1 SAVING  STORAGE-AQUEOUS ON UNIT   1029 AT TIME STEP     30, STRESS PERIOD     12
 UBDSV1 SAVING     FLOW-JA-FACE ON UNIT   1029 AT TIME STEP     30, STRESS PERIOD     12
 UBDSV06 SAVING  SOURCE-SINK MIX IN MODEL GWT              PACKAGE GWT             CONNECTED TO MODEL GWT              PACKAGE SSM              ON UNIT   1029 AT TIME STEP     30, STRESS PERIOD     12
 UBDSV06 SAVING              CNC IN MODEL GWT              PACKAGE GWT             CONNECTED TO MODEL GWT              PACKAGE CNC-1            ON UNIT   1029 AT TIME STEP     30, STRESS PERIOD     12
1
  CONCENTRATION IN LAYER   1 AT END OF TIME STEP  30 IN STRESS PERIOD   12
  ---------------------------------------------------------------------------

                1               2               3               4               5               6               7               8               9              10
 ................................................................................................................................................................
   1     0.100000        0.100000        0.100109        0.120266        0.100615        0.100012        0.100000        0.100000        0.100000        0.100000    
   2     0.100001        0.100164        0.117795        0.936220        0.144077        0.101445        0.100028        0.100000        0.100000        0.100000    
   3     0.100176        0.124408        0.952262         6.83710         1.31640        0.178267        0.102220        0.100023        0.100000        0.100000    
   4     0.100004        0.100722        0.144949         1.31469        0.226490        0.107340        0.100217        0.100001        0.100000        0.100000    
   5     0.100000        0.100012        0.101394        0.176730        0.107259        0.100486        0.100000        0.100000        0.100000        0.100000    
   6     0.100000        0.100000        0.100025        0.102094        0.100210        0.100000        0.100000        0.100000        0.100000        0.100000    
   7     0.100000        0.100000        0.100000        0.100020        0.100000        0.100000        0.100000        0.100000        0.100000        0.100000    
   8     0.100000        0.100000        0.100000        0.100000        0.100000        0.100000        0.100000        0.100000        0.100000        0.100000    
   9     0.100000        0.100000        0.100000        0.100000        0.100000        0.100000        0.100000        0.100000        0.100000        0.100000    
  10     0.100000        0.100000        0.100000        0.100000        0.100000        0.100000        0.100000        0.100000        0.100000        0.100000    

 CONCENTRATION WILL BE SAVED ON UNIT 1030 AT END OF TIME STEP   30, STRESS PERIOD   12


  MASS BUDGET FOR ENTIRE MODEL AT END OF TIME STEP   30, STRESS PERIOD  12
  ---------------------------------------------------------------------------------------------------

     CUMULATIVE MASS      M       RATES FOR THIS TIME STEP      M/T          PACKAGE NAME    
     ------------------                 ------------------------                     ----------------

           IN:                                      IN:
           ---                                      ---
     STORAGE-AQUEOUS =       7.9689E-07       STORAGE-AQUEOUS =       4.9039E-10     MST                              
                 WEL =       36000.0000                   WEL =         100.0000     SSM_WEL-1                        
                 CHD =           0.0000                   CHD =           0.0000     SSM_CHD-1                        
                 CNC =           0.0000                   CNC =           0.0000     CNC-1                            

            TOTAL IN =       36000.0000              TOTAL IN =         100.0000

          OUT:                                     OUT:
          ----                                     ----
     STORAGE-AQUEOUS =       35639.8579       STORAGE-AQUEOUS =          98.9978     MST                              
                 WEL =           0.0000                   WEL =           0.0000     SSM_WEL-1                        
                 CHD =           0.0000                   CHD =           0.0000     SSM_CHD-1                        
                 CNC =         360.1421                   CNC =           1.0022     CNC-1                            

           TOTAL OUT =       36000.0000             TOTAL OUT =         100.0000

            IN - OUT =      -5.8208E-11              IN - OUT =      -1.1937E-12

 PERCENT DISCREPANCY =          -0.00     PERCENT DISCREPANCY =          -0.00




         TIME SUMMARY AT END OF TIME STEP   30 IN STRESS PERIOD   12
                    SECONDS     MINUTES      HOURS       DAYS        YEARS
                    -----------------------------------------------------------
   TIME STEP LENGTH  86400.      1440.0      24.000      1.0000     2.73785E-03
 STRESS PERIOD TIME 2.59200E+06  43200.      720.00      30.000     8.21355E-02
         TOTAL TIME 3.11040E+07 5.18400E+05  8640.0      360.00     0.98563    


end timestep

